/*---------------------------------------------------------------------------*\
  =========                 |
  \\      /  F ield         | OpenFOAM: The Open Source CFD Toolbox
   \\    /   O peration     | Website:  https://openfoam.org
    \\  /    A nd           | Version:  6
     \\/     M anipulation  |
\*---------------------------------------------------------------------------*/
Build  : 6-fa1285188035
Exec   : buoyantBoussinesqPimpleFoamTemp
Date   : Feb 02 2021
Time   : 11:32:09
Host   : "qian"
PID    : 2222
I/O    : uncollated
Case   : /home/qian/OpenFOAM/qian-6/run/TinSolidi
nProcs : 1
sigFpe : Enabling floating point exception trapping (FOAM_SIGFPE).
fileModificationChecking : Monitoring run-time modified files using timeStampMaster (fileModificationSkew 10)
allowSystemOperations : Allowing user-supplied system call operations

// * * * * * * * * * * * * * * * * * * * * * * * * * * * * * * * * * * * * * //
Create time

Create mesh for time = 0


PIMPLE: No convergence criteria found


PIMPLE: Operating solver in PISO mode

Reading thermophysical properties

Reading field T

Reading field p_rgh

Reading field U

Reading/calculating face flux field phi

Selecting incompressible transport model Newtonian
Creating turbulence model

Selecting turbulence model type laminar
Selecting laminar stress model Stokes
Reading field alphat


Reading g

Reading hRef
Calculating field g.h

No MRF models present

Radiation model not active: radiationProperties not found
Selecting radiationModel none
No finite volume options present
Courant Number mean: 0 max: 0

Starting time loop

streamLine streamlines:
    automatic track length specified through number of sub cycles : 5

Courant Number mean: 0 max: 0
Time = 0.03

DILUPBiCGStab:  Solving for T, Initial residual = 1, Final residual = 8.0371e-09, No Iterations 5
GAMG:  Solving for p_rgh, Initial residual = 1, Final residual = 0.00394832, No Iterations 2
time step continuity errors : sum local = 7.88256e-06, global = -7.00728e-21, cumulative = -7.00728e-21
GAMG:  Solving for p_rgh, Initial residual = 0.00210934, Final residual = 5.02177e-09, No Iterations 12
time step continuity errors : sum local = 2.15994e-11, global = -7.8166e-21, cumulative = -1.48239e-20
ExecutionTime = 0.04 s  ClockTime = 0 s

Courant Number mean: 0.000194899 max: 0.00418599
Time = 0.06

DILUPBiCGStab:  Solving for T, Initial residual = 0.137815, Final residual = 5.3966e-09, No Iterations 5
GAMG:  Solving for p_rgh, Initial residual = 0.0940803, Final residual = 0.000782755, No Iterations 2
time step continuity errors : sum local = 3.21023e-06, global = -1.08547e-20, cumulative = -2.56786e-20
GAMG:  Solving for p_rgh, Initial residual = 0.000823433, Final residual = 5.6647e-09, No Iterations 9
time step continuity errors : sum local = 2.53862e-11, global = -1.10308e-20, cumulative = -3.67094e-20
ExecutionTime = 0.05 s  ClockTime = 0 s

Courant Number mean: 0.000491808 max: 0.00949608
Time = 0.09

DILUPBiCGStab:  Solving for T, Initial residual = 0.0616594, Final residual = 1.93219e-09, No Iterations 5
GAMG:  Solving for p_rgh, Initial residual = 0.095798, Final residual = 0.000627204, No Iterations 2
time step continuity errors : sum local = 2.50732e-06, global = 1.82386e-21, cumulative = -3.48855e-20
GAMG:  Solving for p_rgh, Initial residual = 0.000717042, Final residual = 5.98014e-09, No Iterations 8
time step continuity errors : sum local = 2.28421e-11, global = 2.43525e-21, cumulative = -3.24503e-20
ExecutionTime = 0.06 s  ClockTime = 0 s

Courant Number mean: 0.000854453 max: 0.0150615
Time = 0.12

DILUPBiCGStab:  Solving for T, Initial residual = 0.0385147, Final residual = 8.30994e-09, No Iterations 4
GAMG:  Solving for p_rgh, Initial residual = 0.0879883, Final residual = 0.000582215, No Iterations 2
time step continuity errors : sum local = 2.08275e-06, global = -1.0763e-20, cumulative = -4.32133e-20
GAMG:  Solving for p_rgh, Initial residual = 0.000675255, Final residual = 4.96906e-09, No Iterations 8
time step continuity errors : sum local = 1.75076e-11, global = -9.45492e-21, cumulative = -5.26683e-20
ExecutionTime = 0.07 s  ClockTime = 0 s

Courant Number mean: 0.00126517 max: 0.0206068
Time = 0.15

DILUPBiCGStab:  Solving for T, Initial residual = 0.028281, Final residual = 3.05111e-09, No Iterations 4
GAMG:  Solving for p_rgh, Initial residual = 0.0755752, Final residual = 0.000538284, No Iterations 2
time step continuity errors : sum local = 1.71983e-06, global = 3.96206e-22, cumulative = -5.2272e-20
GAMG:  Solving for p_rgh, Initial residual = 0.000626224, Final residual = 4.98876e-09, No Iterations 8
time step continuity errors : sum local = 1.61039e-11, global = 1.3112e-21, cumulative = -5.09608e-20
ExecutionTime = 0.08 s  ClockTime = 0 s

Courant Number mean: 0.00171605 max: 0.0260344
Time = 0.18

DILUPBiCGStab:  Solving for T, Initial residual = 0.022568, Final residual = 9.94044e-09, No Iterations 4
GAMG:  Solving for p_rgh, Initial residual = 0.0645477, Final residual = 0.000493896, No Iterations 2
time step continuity errors : sum local = 1.42791e-06, global = -1.7027e-22, cumulative = -5.11311e-20
GAMG:  Solving for p_rgh, Initial residual = 0.000577998, Final residual = 5.07434e-09, No Iterations 8
time step continuity errors : sum local = 1.51632e-11, global = -5.4069e-21, cumulative = -5.6538e-20
ExecutionTime = 0.09 s  ClockTime = 0 s

Courant Number mean: 0.00219902 max: 0.0313067
Time = 0.21

DILUPBiCGStab:  Solving for T, Initial residual = 0.0189109, Final residual = 8.20177e-09, No Iterations 4
GAMG:  Solving for p_rgh, Initial residual = 0.0550731, Final residual = 0.000450242, No Iterations 2
time step continuity errors : sum local = 1.19404e-06, global = -4.19454e-21, cumulative = -6.07326e-20
GAMG:  Solving for p_rgh, Initial residual = 0.00053392, Final residual = 5.13504e-09, No Iterations 8
time step continuity errors : sum local = 1.42732e-11, global = -5.1384e-21, cumulative = -6.5871e-20
ExecutionTime = 0.1 s  ClockTime = 0 s

Courant Number mean: 0.00270861 max: 0.0364098
Time = 0.24

DILUPBiCGStab:  Solving for T, Initial residual = 0.0163427, Final residual = 7.09548e-09, No Iterations 4
GAMG:  Solving for p_rgh, Initial residual = 0.0483465, Final residual = 0.000411775, No Iterations 2
time step continuity errors : sum local = 1.01317e-06, global = 6.3352e-21, cumulative = -5.95358e-20
GAMG:  Solving for p_rgh, Initial residual = 0.000496209, Final residual = 4.19343e-09, No Iterations 8
time step continuity errors : sum local = 1.0841e-11, global = 2.63059e-21, cumulative = -5.69052e-20
ExecutionTime = 0.1 s  ClockTime = 0 s

Courant Number mean: 0.00324362 max: 0.0413401
Time = 0.27

DILUPBiCGStab:  Solving for T, Initial residual = 0.0144341, Final residual = 6.46679e-09, No Iterations 4
GAMG:  Solving for p_rgh, Initial residual = 0.0425575, Final residual = 0.000383947, No Iterations 2
time step continuity errors : sum local = 8.84387e-07, global = -4.55146e-21, cumulative = -6.14566e-20
GAMG:  Solving for p_rgh, Initial residual = 0.000470918, Final residual = 3.23624e-09, No Iterations 8
time step continuity errors : sum local = 7.84221e-12, global = 1.71908e-22, cumulative = -6.12847e-20
ExecutionTime = 0.11 s  ClockTime = 0 s

Courant Number mean: 0.0038014 max: 0.046099
Time = 0.3

DILUPBiCGStab:  Solving for T, Initial residual = 0.0129539, Final residual = 6.0949e-09, No Iterations 4
GAMG:  Solving for p_rgh, Initial residual = 0.038183, Final residual = 0.000367048, No Iterations 2
time step continuity errors : sum local = 7.97091e-07, global = -1.01327e-20, cumulative = -7.14174e-20
GAMG:  Solving for p_rgh, Initial residual = 0.000458534, Final residual = 7.41394e-09, No Iterations 7
time step continuity errors : sum local = 1.79504e-11, global = -3.70665e-21, cumulative = -7.51241e-20
ExecutionTime = 0.12 s  ClockTime = 0 s

Courant Number mean: 0.00437845 max: 0.0506908
Time = 0.33

DILUPBiCGStab:  Solving for T, Initial residual = 0.0117703, Final residual = 5.84638e-09, No Iterations 4
GAMG:  Solving for p_rgh, Initial residual = 0.0344903, Final residual = 9.07371e-05, No Iterations 3
time step continuity errors : sum local = 1.89041e-07, global = -7.47389e-22, cumulative = -7.58715e-20
GAMG:  Solving for p_rgh, Initial residual = 0.000190219, Final residual = 6.01882e-09, No Iterations 12
time step continuity errors : sum local = 1.28027e-11, global = -3.67555e-21, cumulative = -7.9547e-20
ExecutionTime = 0.13 s  ClockTime = 0 s

Courant Number mean: 0.00497279 max: 0.0551209
Time = 0.36

DILUPBiCGStab:  Solving for T, Initial residual = 0.010799, Final residual = 5.55397e-09, No Iterations 4
GAMG:  Solving for p_rgh, Initial residual = 0.0313298, Final residual = 8.71408e-05, No Iterations 3
time step continuity errors : sum local = 1.72878e-07, global = -6.89349e-21, cumulative = -8.64405e-20
GAMG:  Solving for p_rgh, Initial residual = 0.000204576, Final residual = 9.18201e-09, No Iterations 12
time step continuity errors : sum local = 1.86384e-11, global = -6.72077e-21, cumulative = -9.31613e-20
ExecutionTime = 0.14 s  ClockTime = 0 s

Courant Number mean: 0.00558207 max: 0.0593954
Time = 0.39

DILUPBiCGStab:  Solving for T, Initial residual = 0.00998845, Final residual = 5.12775e-09, No Iterations 4
GAMG:  Solving for p_rgh, Initial residual = 0.0288351, Final residual = 8.33241e-05, No Iterations 3
time step continuity errors : sum local = 1.58052e-07, global = 3.8966e-22, cumulative = -9.27716e-20
GAMG:  Solving for p_rgh, Initial residual = 0.000219576, Final residual = 5.96651e-09, No Iterations 13
time step continuity errors : sum local = 1.16294e-11, global = 8.75091e-22, cumulative = -9.18965e-20
ExecutionTime = 0.15 s  ClockTime = 0 s

Courant Number mean: 0.00620837 max: 0.0635208
Time = 0.42

DILUPBiCGStab:  Solving for T, Initial residual = 0.0092998, Final residual = 4.61325e-09, No Iterations 4
GAMG:  Solving for p_rgh, Initial residual = 0.0265644, Final residual = 8.01056e-05, No Iterations 3
time step continuity errors : sum local = 1.45784e-07, global = 3.43897e-21, cumulative = -8.84576e-20
GAMG:  Solving for p_rgh, Initial residual = 0.000236319, Final residual = 7.59911e-09, No Iterations 13
time step continuity errors : sum local = 1.42374e-11, global = -3.77624e-21, cumulative = -9.22338e-20
ExecutionTime = 0.16 s  ClockTime = 0 s

Courant Number mean: 0.00684946 max: 0.0675036
Time = 0.45

DILUPBiCGStab:  Solving for T, Initial residual = 0.00870606, Final residual = 4.07372e-09, No Iterations 4
GAMG:  Solving for p_rgh, Initial residual = 0.0246394, Final residual = 7.73261e-05, No Iterations 3
time step continuity errors : sum local = 1.35428e-07, global = -6.31965e-21, cumulative = -9.85534e-20
GAMG:  Solving for p_rgh, Initial residual = 0.000254403, Final residual = 9.1702e-09, No Iterations 13
time step continuity errors : sum local = 1.6561e-11, global = -2.75134e-21, cumulative = -1.01305e-19
ExecutionTime = 0.17 s  ClockTime = 0 s

Courant Number mean: 0.00750387 max: 0.0713503
Time = 0.48

DILUPBiCGStab:  Solving for T, Initial residual = 0.00819206, Final residual = 3.55106e-09, No Iterations 4
GAMG:  Solving for p_rgh, Initial residual = 0.0230045, Final residual = 7.456e-05, No Iterations 3
time step continuity errors : sum local = 1.26019e-07, global = -1.22136e-20, cumulative = -1.13518e-19
GAMG:  Solving for p_rgh, Initial residual = 0.000273441, Final residual = 5.00848e-09, No Iterations 14
time step continuity errors : sum local = 8.75136e-12, global = 2.38378e-21, cumulative = -1.11135e-19
ExecutionTime = 0.18 s  ClockTime = 0 s

Courant Number mean: 0.00817001 max: 0.0750671
Time = 0.51

DILUPBiCGStab:  Solving for T, Initial residual = 0.0077392, Final residual = 3.08028e-09, No Iterations 4
GAMG:  Solving for p_rgh, Initial residual = 0.0214922, Final residual = 7.18461e-05, No Iterations 3
time step continuity errors : sum local = 1.1748e-07, global = 2.43159e-20, cumulative = -8.68187e-20
GAMG:  Solving for p_rgh, Initial residual = 0.000293836, Final residual = 5.68595e-09, No Iterations 14
time step continuity errors : sum local = 9.61976e-12, global = -2.01942e-20, cumulative = -1.07013e-19
ExecutionTime = 0.19 s  ClockTime = 0 s

Courant Number mean: 0.00884711 max: 0.0786602
Time = 0.54

DILUPBiCGStab:  Solving for T, Initial residual = 0.00733693, Final residual = 2.67667e-09, No Iterations 4
GAMG:  Solving for p_rgh, Initial residual = 0.0201573, Final residual = 6.92421e-05, No Iterations 3
time step continuity errors : sum local = 1.0978e-07, global = -1.51614e-20, cumulative = -1.22174e-19
GAMG:  Solving for p_rgh, Initial residual = 0.000315644, Final residual = 6.34569e-09, No Iterations 14
time step continuity errors : sum local = 1.0415e-11, global = -1.13205e-20, cumulative = -1.33495e-19
ExecutionTime = 0.2 s  ClockTime = 0 s

Courant Number mean: 0.00953411 max: 0.0821355
Time = 0.57

DILUPBiCGStab:  Solving for T, Initial residual = 0.00697853, Final residual = 2.3413e-09, No Iterations 4
GAMG:  Solving for p_rgh, Initial residual = 0.0190162, Final residual = 6.66495e-05, No Iterations 3
time step continuity errors : sum local = 1.02669e-07, global = -1.99953e-20, cumulative = -1.5349e-19
GAMG:  Solving for p_rgh, Initial residual = 0.000338854, Final residual = 6.99463e-09, No Iterations 14
time step continuity errors : sum local = 1.11563e-11, global = -2.61979e-20, cumulative = -1.79688e-19
ExecutionTime = 0.21 s  ClockTime = 0 s

Courant Number mean: 0.0102313 max: 0.0869992
Time = 0.6

DILUPBiCGStab:  Solving for T, Initial residual = 0.00665787, Final residual = 2.06547e-09, No Iterations 4
GAMG:  Solving for p_rgh, Initial residual = 0.0179468, Final residual = 6.43669e-05, No Iterations 3
time step continuity errors : sum local = 9.65078e-08, global = -7.43377e-21, cumulative = -1.87122e-19
GAMG:  Solving for p_rgh, Initial residual = 0.000363471, Final residual = 7.6381e-09, No Iterations 14
time step continuity errors : sum local = 1.18576e-11, global = 8.07965e-21, cumulative = -1.79042e-19
ExecutionTime = 0.22 s  ClockTime = 0 s

Courant Number mean: 0.0109403 max: 0.0920104
Time = 0.63

DILUPBiCGStab:  Solving for T, Initial residual = 0.00636755, Final residual = 1.84144e-09, No Iterations 4
GAMG:  Solving for p_rgh, Initial residual = 0.0169462, Final residual = 6.21797e-05, No Iterations 3
time step continuity errors : sum local = 9.0896e-08, global = -2.63051e-20, cumulative = -2.05347e-19
GAMG:  Solving for p_rgh, Initial residual = 0.00038873, Final residual = 8.28031e-09, No Iterations 14
time step continuity errors : sum local = 1.25296e-11, global = 1.60128e-20, cumulative = -1.89335e-19
ExecutionTime = 0.24 s  ClockTime = 0 s

Courant Number mean: 0.011659 max: 0.096987
Time = 0.66

DILUPBiCGStab:  Solving for T, Initial residual = 0.00610309, Final residual = 1.65932e-09, No Iterations 4
GAMG:  Solving for p_rgh, Initial residual = 0.0161002, Final residual = 6.01531e-05, No Iterations 3
time step continuity errors : sum local = 8.58646e-08, global = 9.89696e-21, cumulative = -1.79438e-19
GAMG:  Solving for p_rgh, Initial residual = 0.000415312, Final residual = 8.92319e-09, No Iterations 14
time step continuity errors : sum local = 1.3178e-11, global = -1.54193e-20, cumulative = -1.94857e-19
ExecutionTime = 0.25 s  ClockTime = 0 s

Courant Number mean: 0.0123867 max: 0.101927
Time = 0.69

DILUPBiCGStab:  Solving for T, Initial residual = 0.00586174, Final residual = 1.51086e-09, No Iterations 4
GAMG:  Solving for p_rgh, Initial residual = 0.0153093, Final residual = 5.83878e-05, No Iterations 3
time step continuity errors : sum local = 8.14935e-08, global = 1.04765e-20, cumulative = -1.8438e-19
GAMG:  Solving for p_rgh, Initial residual = 0.00044322, Final residual = 9.56724e-09, No Iterations 14
time step continuity errors : sum local = 1.38062e-11, global = -4.88217e-21, cumulative = -1.89263e-19
ExecutionTime = 0.26 s  ClockTime = 0 s

Courant Number mean: 0.0131225 max: 0.106828
Time = 0.72

DILUPBiCGStab:  Solving for T, Initial residual = 0.00564132, Final residual = 1.38952e-09, No Iterations 4
GAMG:  Solving for p_rgh, Initial residual = 0.0145609, Final residual = 5.69129e-05, No Iterations 3
time step continuity errors : sum local = 7.77643e-08, global = -1.30388e-20, cumulative = -2.02301e-19
GAMG:  Solving for p_rgh, Initial residual = 0.00047236, Final residual = 4.78568e-09, No Iterations 15
time step continuity errors : sum local = 6.76107e-12, global = 1.13705e-20, cumulative = -1.90931e-19
ExecutionTime = 0.27 s  ClockTime = 0 s

Courant Number mean: 0.013866 max: 0.111689
Time = 0.75

DILUPBiCGStab:  Solving for T, Initial residual = 0.00543894, Final residual = 1.28994e-09, No Iterations 4
GAMG:  Solving for p_rgh, Initial residual = 0.0138648, Final residual = 5.5803e-05, No Iterations 3
time step continuity errors : sum local = 7.4722e-08, global = -3.09925e-21, cumulative = -1.9403e-19
GAMG:  Solving for p_rgh, Initial residual = 0.000502606, Final residual = 5.08839e-09, No Iterations 15
time step continuity errors : sum local = 7.03924e-12, global = 2.86513e-21, cumulative = -1.91165e-19
ExecutionTime = 0.28 s  ClockTime = 0 s

Courant Number mean: 0.0146166 max: 0.116509
Time = 0.78

DILUPBiCGStab:  Solving for T, Initial residual = 0.00525165, Final residual = 1.206e-09, No Iterations 4
GAMG:  Solving for p_rgh, Initial residual = 0.0132599, Final residual = 5.50646e-05, No Iterations 3
time step continuity errors : sum local = 7.23251e-08, global = -9.21261e-21, cumulative = -2.00378e-19
GAMG:  Solving for p_rgh, Initial residual = 0.000533729, Final residual = 5.3915e-09, No Iterations 15
time step continuity errors : sum local = 7.3105e-12, global = 2.59237e-20, cumulative = -1.74454e-19
ExecutionTime = 0.29 s  ClockTime = 0 s

Courant Number mean: 0.0153737 max: 0.121287
Time = 0.81

DILUPBiCGStab:  Solving for T, Initial residual = 0.00507787, Final residual = 1.1353e-09, No Iterations 4
GAMG:  Solving for p_rgh, Initial residual = 0.0126834, Final residual = 5.47614e-05, No Iterations 3
time step continuity errors : sum local = 7.06079e-08, global = 3.78524e-21, cumulative = -1.70669e-19
GAMG:  Solving for p_rgh, Initial residual = 0.000565813, Final residual = 5.69467e-09, No Iterations 15
time step continuity errors : sum local = 7.57489e-12, global = -2.65884e-21, cumulative = -1.73327e-19
ExecutionTime = 0.3 s  ClockTime = 0 s

Courant Number mean: 0.0161374 max: 0.126021
Time = 0.84

DILUPBiCGStab:  Solving for T, Initial residual = 0.00491648, Final residual = 1.07422e-09, No Iterations 4
GAMG:  Solving for p_rgh, Initial residual = 0.0121356, Final residual = 5.50415e-05, No Iterations 3
time step continuity errors : sum local = 6.97078e-08, global = 2.09825e-20, cumulative = -1.52345e-19
GAMG:  Solving for p_rgh, Initial residual = 0.000598485, Final residual = 5.99748e-09, No Iterations 15
time step continuity errors : sum local = 7.83263e-12, global = -3.07043e-20, cumulative = -1.83049e-19
ExecutionTime = 0.31 s  ClockTime = 0 s

Courant Number mean: 0.0169096 max: 0.130712
Time = 0.87

DILUPBiCGStab:  Solving for T, Initial residual = 0.00476642, Final residual = 1.02088e-09, No Iterations 4
GAMG:  Solving for p_rgh, Initial residual = 0.01162, Final residual = 5.57135e-05, No Iterations 3
time step continuity errors : sum local = 6.93487e-08, global = -1.35496e-20, cumulative = -1.96599e-19
GAMG:  Solving for p_rgh, Initial residual = 0.000631815, Final residual = 6.30068e-09, No Iterations 15
time step continuity errors : sum local = 8.08532e-12, global = 2.59351e-20, cumulative = -1.70664e-19
ExecutionTime = 0.32 s  ClockTime = 0 s

Courant Number mean: 0.0176891 max: 0.135358
Time = 0.9

DILUPBiCGStab:  Solving for T, Initial residual = 0.00462649, Final residual = 9.96731e-09, No Iterations 3
GAMG:  Solving for p_rgh, Initial residual = 0.0111629, Final residual = 5.66526e-05, No Iterations 3
time step continuity errors : sum local = 6.93537e-08, global = 1.34153e-20, cumulative = -1.57248e-19
GAMG:  Solving for p_rgh, Initial residual = 0.000665768, Final residual = 6.6037e-09, No Iterations 15
time step continuity errors : sum local = 8.33272e-12, global = 9.7447e-21, cumulative = -1.47504e-19
ExecutionTime = 0.34 s  ClockTime = 0 s

Courant Number mean: 0.0184753 max: 0.13996
Time = 0.93

DILUPBiCGStab:  Solving for T, Initial residual = 0.00449548, Final residual = 9.50799e-09, No Iterations 3
GAMG:  Solving for p_rgh, Initial residual = 0.0107274, Final residual = 5.78195e-05, No Iterations 3
time step continuity errors : sum local = 6.9657e-08, global = -4.06684e-21, cumulative = -1.51571e-19
GAMG:  Solving for p_rgh, Initial residual = 0.000700164, Final residual = 6.9061e-09, No Iterations 15
time step continuity errors : sum local = 8.57483e-12, global = -1.92307e-20, cumulative = -1.70801e-19
ExecutionTime = 0.35 s  ClockTime = 0 s

Courant Number mean: 0.0192676 max: 0.144518
Time = 0.96

DILUPBiCGStab:  Solving for T, Initial residual = 0.00437246, Final residual = 9.08754e-09, No Iterations 3
GAMG:  Solving for p_rgh, Initial residual = 0.0103114, Final residual = 5.91595e-05, No Iterations 3
time step continuity errors : sum local = 7.01805e-08, global = -9.34686e-21, cumulative = -1.80148e-19
GAMG:  Solving for p_rgh, Initial residual = 0.000735204, Final residual = 7.20734e-09, No Iterations 15
time step continuity errors : sum local = 8.81143e-12, global = -1.44926e-20, cumulative = -1.94641e-19
ExecutionTime = 0.36 s  ClockTime = 0 s

Courant Number mean: 0.0200659 max: 0.14903
Time = 0.99

DILUPBiCGStab:  Solving for T, Initial residual = 0.00425676, Final residual = 8.70363e-09, No Iterations 3
GAMG:  Solving for p_rgh, Initial residual = 0.00991592, Final residual = 6.0629e-05, No Iterations 3
time step continuity errors : sum local = 7.08642e-08, global = 1.28669e-20, cumulative = -1.81774e-19
GAMG:  Solving for p_rgh, Initial residual = 0.000770332, Final residual = 7.50704e-09, No Iterations 15
time step continuity errors : sum local = 9.04233e-12, global = -2.41817e-21, cumulative = -1.84192e-19
ExecutionTime = 0.37 s  ClockTime = 0 s

Courant Number mean: 0.0208692 max: 0.153498
Time = 1.02

DILUPBiCGStab:  Solving for T, Initial residual = 0.00414784, Final residual = 8.3505e-09, No Iterations 3
GAMG:  Solving for p_rgh, Initial residual = 0.00955282, Final residual = 6.21918e-05, No Iterations 3
time step continuity errors : sum local = 7.16604e-08, global = -1.92013e-20, cumulative = -2.03393e-19
GAMG:  Solving for p_rgh, Initial residual = 0.000806223, Final residual = 7.80495e-09, No Iterations 15
time step continuity errors : sum local = 9.26779e-12, global = 2.84319e-20, cumulative = -1.74961e-19
ExecutionTime = 0.38 s  ClockTime = 0 s

Courant Number mean: 0.0216776 max: 0.15792
Time = 1.05

DILUPBiCGStab:  Solving for T, Initial residual = 0.00404515, Final residual = 8.02466e-09, No Iterations 3
GAMG:  Solving for p_rgh, Initial residual = 0.00921382, Final residual = 6.3832e-05, No Iterations 3
time step continuity errors : sum local = 7.25478e-08, global = 3.30554e-21, cumulative = -1.71656e-19
GAMG:  Solving for p_rgh, Initial residual = 0.000843173, Final residual = 8.10067e-09, No Iterations 15
time step continuity errors : sum local = 9.48783e-12, global = 1.78735e-20, cumulative = -1.53782e-19
ExecutionTime = 0.39 s  ClockTime = 0 s

Courant Number mean: 0.0224907 max: 0.162298
Time = 1.08

DILUPBiCGStab:  Solving for T, Initial residual = 0.00394814, Final residual = 7.7248e-09, No Iterations 3
GAMG:  Solving for p_rgh, Initial residual = 0.00888882, Final residual = 6.55311e-05, No Iterations 3
time step continuity errors : sum local = 7.35016e-08, global = -3.44159e-20, cumulative = -1.88198e-19
GAMG:  Solving for p_rgh, Initial residual = 0.000880409, Final residual = 8.39381e-09, No Iterations 15
time step continuity errors : sum local = 9.70228e-12, global = 1.87543e-20, cumulative = -1.69444e-19
ExecutionTime = 0.4 s  ClockTime = 0 s

Courant Number mean: 0.0233084 max: 0.166632
Time = 1.11

DILUPBiCGStab:  Solving for T, Initial residual = 0.00385636, Final residual = 7.44745e-09, No Iterations 3
GAMG:  Solving for p_rgh, Initial residual = 0.00857787, Final residual = 6.72842e-05, No Iterations 3
time step continuity errors : sum local = 7.45136e-08, global = 6.87581e-20, cumulative = -1.00686e-19
GAMG:  Solving for p_rgh, Initial residual = 0.000917816, Final residual = 8.68409e-09, No Iterations 15
time step continuity errors : sum local = 9.91107e-12, global = 5.99221e-22, cumulative = -1.00087e-19
ExecutionTime = 0.41 s  ClockTime = 0 s

Courant Number mean: 0.0241301 max: 0.170922
Time = 1.14

DILUPBiCGStab:  Solving for T, Initial residual = 0.00376936, Final residual = 7.18962e-09, No Iterations 3
GAMG:  Solving for p_rgh, Initial residual = 0.00828495, Final residual = 6.90768e-05, No Iterations 3
time step continuity errors : sum local = 7.55664e-08, global = 1.67422e-20, cumulative = -8.33445e-20
GAMG:  Solving for p_rgh, Initial residual = 0.000955454, Final residual = 8.97121e-09, No Iterations 15
time step continuity errors : sum local = 1.01143e-11, global = -9.07508e-21, cumulative = -9.24196e-20
ExecutionTime = 0.42 s  ClockTime = 0 s

Courant Number mean: 0.0249569 max: 0.175171
Time = 1.17

DILUPBiCGStab:  Solving for T, Initial residual = 0.00368672, Final residual = 6.94948e-09, No Iterations 3
GAMG:  Solving for p_rgh, Initial residual = 0.00801053, Final residual = 7.09059e-05, No Iterations 3
time step continuity errors : sum local = 7.66558e-08, global = -2.58696e-20, cumulative = -1.18289e-19
GAMG:  Solving for p_rgh, Initial residual = 0.000992855, Final residual = 9.25543e-09, No Iterations 15
time step continuity errors : sum local = 1.03125e-11, global = -2.76853e-21, cumulative = -1.21058e-19
ExecutionTime = 0.43 s  ClockTime = 0 s

Courant Number mean: 0.0257901 max: 0.179377
Time = 1.2

DILUPBiCGStab:  Solving for T, Initial residual = 0.00360815, Final residual = 6.72517e-09, No Iterations 3
GAMG:  Solving for p_rgh, Initial residual = 0.00775043, Final residual = 7.27732e-05, No Iterations 3
time step continuity errors : sum local = 7.77839e-08, global = 1.76164e-21, cumulative = -1.19296e-19
GAMG:  Solving for p_rgh, Initial residual = 0.00103046, Final residual = 9.5369e-09, No Iterations 15
time step continuity errors : sum local = 1.05065e-11, global = -2.09203e-20, cumulative = -1.40216e-19
ExecutionTime = 0.45 s  ClockTime = 0 s

Courant Number mean: 0.0266282 max: 0.18354
Time = 1.23

DILUPBiCGStab:  Solving for T, Initial residual = 0.00353338, Final residual = 6.51642e-09, No Iterations 3
GAMG:  Solving for p_rgh, Initial residual = 0.00750058, Final residual = 7.46641e-05, No Iterations 3
time step continuity errors : sum local = 7.8935e-08, global = -3.17096e-20, cumulative = -1.71926e-19
GAMG:  Solving for p_rgh, Initial residual = 0.00106876, Final residual = 9.81513e-09, No Iterations 15
time step continuity errors : sum local = 1.06956e-11, global = -7.90005e-20, cumulative = -2.50927e-19
ExecutionTime = 0.46 s  ClockTime = 0 s

Courant Number mean: 0.0274709 max: 0.187661
Time = 1.26

DILUPBiCGStab:  Solving for T, Initial residual = 0.00346221, Final residual = 6.3198e-09, No Iterations 3
GAMG:  Solving for p_rgh, Initial residual = 0.00726363, Final residual = 3.04333e-05, No Iterations 4
time step continuity errors : sum local = 3.22151e-08, global = 7.52333e-20, cumulative = -1.75693e-19
GAMG:  Solving for p_rgh, Initial residual = 0.00112525, Final residual = 4.86484e-09, No Iterations 16
time step continuity errors : sum local = 5.24938e-12, global = -2.02081e-20, cumulative = -1.95901e-19
ExecutionTime = 0.47 s  ClockTime = 0 s

Courant Number mean: 0.0283177 max: 0.191739
Time = 1.29

DILUPBiCGStab:  Solving for T, Initial residual = 0.0033944, Final residual = 6.13591e-09, No Iterations 3
GAMG:  Solving for p_rgh, Initial residual = 0.00703909, Final residual = 3.17624e-05, No Iterations 4
time step continuity errors : sum local = 3.32767e-08, global = -4.26216e-20, cumulative = -2.38523e-19
GAMG:  Solving for p_rgh, Initial residual = 0.00116471, Final residual = 4.99648e-09, No Iterations 16
time step continuity errors : sum local = 5.33723e-12, global = -3.00609e-20, cumulative = -2.68584e-19
ExecutionTime = 0.48 s  ClockTime = 0 s

Courant Number mean: 0.0291686 max: 0.195775
Time = 1.32

DILUPBiCGStab:  Solving for T, Initial residual = 0.00332969, Final residual = 5.96348e-09, No Iterations 3
GAMG:  Solving for p_rgh, Initial residual = 0.00682513, Final residual = 3.28712e-05, No Iterations 4
time step continuity errors : sum local = 3.40938e-08, global = 1.5655e-20, cumulative = -2.52929e-19
GAMG:  Solving for p_rgh, Initial residual = 0.00120426, Final residual = 5.12698e-09, No Iterations 16
time step continuity errors : sum local = 5.42392e-12, global = -5.07995e-20, cumulative = -3.03728e-19
ExecutionTime = 0.49 s  ClockTime = 0 s

Courant Number mean: 0.0300231 max: 0.19977
Time = 1.35

DILUPBiCGStab:  Solving for T, Initial residual = 0.00326781, Final residual = 5.8008e-09, No Iterations 3
GAMG:  Solving for p_rgh, Initial residual = 0.00662092, Final residual = 3.3966e-05, No Iterations 4
time step continuity errors : sum local = 3.48912e-08, global = 1.19255e-20, cumulative = -2.91803e-19
GAMG:  Solving for p_rgh, Initial residual = 0.00124441, Final residual = 5.25528e-09, No Iterations 16
time step continuity errors : sum local = 5.50808e-12, global = 1.00361e-21, cumulative = -2.90799e-19
ExecutionTime = 0.5 s  ClockTime = 1 s

Courant Number mean: 0.030881 max: 0.203724
Time = 1.38

DILUPBiCGStab:  Solving for T, Initial residual = 0.00320854, Final residual = 5.6488e-09, No Iterations 3
GAMG:  Solving for p_rgh, Initial residual = 0.00642717, Final residual = 3.50406e-05, No Iterations 4
time step continuity errors : sum local = 3.56637e-08, global = 6.91445e-20, cumulative = -2.21655e-19
GAMG:  Solving for p_rgh, Initial residual = 0.00128507, Final residual = 5.38113e-09, No Iterations 16
time step continuity errors : sum local = 5.58972e-12, global = 1.83515e-20, cumulative = -2.03303e-19
ExecutionTime = 0.51 s  ClockTime = 1 s

Courant Number mean: 0.0317425 max: 0.207637
Time = 1.41

DILUPBiCGStab:  Solving for T, Initial residual = 0.00315175, Final residual = 5.50588e-09, No Iterations 3
GAMG:  Solving for p_rgh, Initial residual = 0.00624151, Final residual = 3.6092e-05, No Iterations 4
time step continuity errors : sum local = 3.64088e-08, global = -7.02529e-21, cumulative = -2.10329e-19
GAMG:  Solving for p_rgh, Initial residual = 0.00132535, Final residual = 5.50447e-09, No Iterations 16
time step continuity errors : sum local = 5.66872e-12, global = -4.27477e-21, cumulative = -2.14603e-19
ExecutionTime = 0.53 s  ClockTime = 1 s

Courant Number mean: 0.0326068 max: 0.211511
Time = 1.44

DILUPBiCGStab:  Solving for T, Initial residual = 0.00309736, Final residual = 5.37127e-09, No Iterations 3
GAMG:  Solving for p_rgh, Initial residual = 0.00606265, Final residual = 3.71171e-05, No Iterations 4
time step continuity errors : sum local = 3.71246e-08, global = 3.75086e-20, cumulative = -1.77095e-19
GAMG:  Solving for p_rgh, Initial residual = 0.00136561, Final residual = 5.62531e-09, No Iterations 16
time step continuity errors : sum local = 5.74522e-12, global = -5.1474e-20, cumulative = -2.28569e-19
ExecutionTime = 0.54 s  ClockTime = 1 s

Courant Number mean: 0.0334742 max: 0.215345
Time = 1.47

DILUPBiCGStab:  Solving for T, Initial residual = 0.00304523, Final residual = 5.2451e-09, No Iterations 3
GAMG:  Solving for p_rgh, Initial residual = 0.00589411, Final residual = 3.81524e-05, No Iterations 4
time step continuity errors : sum local = 3.77601e-08, global = 4.43882e-20, cumulative = -1.84181e-19
GAMG:  Solving for p_rgh, Initial residual = 0.00140623, Final residual = 5.74299e-09, No Iterations 16
time step continuity errors : sum local = 5.81884e-12, global = -2.1955e-20, cumulative = -2.06136e-19
ExecutionTime = 0.55 s  ClockTime = 1 s

Courant Number mean: 0.0343445 max: 0.21914
Time = 1.5

DILUPBiCGStab:  Solving for T, Initial residual = 0.00299522, Final residual = 5.12606e-09, No Iterations 3
GAMG:  Solving for p_rgh, Initial residual = 0.00573254, Final residual = 3.91169e-05, No Iterations 4
time step continuity errors : sum local = 3.84119e-08, global = -2.64607e-20, cumulative = -2.32596e-19
GAMG:  Solving for p_rgh, Initial residual = 0.0014473, Final residual = 5.8583e-09, No Iterations 16
time step continuity errors : sum local = 5.89019e-12, global = -3.84091e-20, cumulative = -2.71005e-19
ExecutionTime = 0.56 s  ClockTime = 1 s

Courant Number mean: 0.0352172 max: 0.222897
Time = 1.53

DILUPBiCGStab:  Solving for T, Initial residual = 0.00294718, Final residual = 5.01359e-09, No Iterations 3
GAMG:  Solving for p_rgh, Initial residual = 0.00557705, Final residual = 4.00447e-05, No Iterations 4
time step continuity errors : sum local = 3.90272e-08, global = -1.02621e-20, cumulative = -2.81267e-19
GAMG:  Solving for p_rgh, Initial residual = 0.00148854, Final residual = 5.9707e-09, No Iterations 16
time step continuity errors : sum local = 5.95894e-12, global = 1.44828e-20, cumulative = -2.66785e-19
ExecutionTime = 0.57 s  ClockTime = 1 s

Courant Number mean: 0.0360934 max: 0.226617
Time = 1.56

DILUPBiCGStab:  Solving for T, Initial residual = 0.00290098, Final residual = 4.90802e-09, No Iterations 3
GAMG:  Solving for p_rgh, Initial residual = 0.00542878, Final residual = 4.09373e-05, No Iterations 4
time step continuity errors : sum local = 3.96099e-08, global = -9.99356e-21, cumulative = -2.76778e-19
GAMG:  Solving for p_rgh, Initial residual = 0.00152894, Final residual = 6.08022e-09, No Iterations 16
time step continuity errors : sum local = 6.0255e-12, global = -3.20239e-20, cumulative = -3.08802e-19
ExecutionTime = 0.6 s  ClockTime = 1 s

Courant Number mean: 0.036974 max: 0.230299
Time = 1.59

DILUPBiCGStab:  Solving for T, Initial residual = 0.00285655, Final residual = 4.80872e-09, No Iterations 3
GAMG:  Solving for p_rgh, Initial residual = 0.00528756, Final residual = 4.17973e-05, No Iterations 4
time step continuity errors : sum local = 4.0163e-08, global = 2.48529e-20, cumulative = -2.83949e-19
GAMG:  Solving for p_rgh, Initial residual = 0.00156898, Final residual = 6.18733e-09, No Iterations 16
time step continuity errors : sum local = 6.09016e-12, global = -8.63794e-21, cumulative = -2.92587e-19
ExecutionTime = 0.61 s  ClockTime = 1 s

Courant Number mean: 0.0378582 max: 0.233944
Time = 1.62

DILUPBiCGStab:  Solving for T, Initial residual = 0.00281381, Final residual = 4.71527e-09, No Iterations 3
GAMG:  Solving for p_rgh, Initial residual = 0.00515264, Final residual = 4.26193e-05, No Iterations 4
time step continuity errors : sum local = 4.0682e-08, global = -5.8871e-20, cumulative = -3.51458e-19
GAMG:  Solving for p_rgh, Initial residual = 0.00160926, Final residual = 6.29179e-09, No Iterations 16
time step continuity errors : sum local = 6.15273e-12, global = -9.41104e-20, cumulative = -4.45568e-19
ExecutionTime = 0.62 s  ClockTime = 1 s

Courant Number mean: 0.0387456 max: 0.237554
Time = 1.65

DILUPBiCGStab:  Solving for T, Initial residual = 0.00277268, Final residual = 4.62713e-09, No Iterations 3
GAMG:  Solving for p_rgh, Initial residual = 0.00502251, Final residual = 4.34012e-05, No Iterations 4
time step continuity errors : sum local = 4.11657e-08, global = 6.34257e-21, cumulative = -4.39226e-19
GAMG:  Solving for p_rgh, Initial residual = 0.00164988, Final residual = 6.39326e-09, No Iterations 16
time step continuity errors : sum local = 6.21286e-12, global = 2.6333e-20, cumulative = -4.12893e-19
ExecutionTime = 0.63 s  ClockTime = 1 s

Courant Number mean: 0.0396358 max: 0.241128
Time = 1.68

DILUPBiCGStab:  Solving for T, Initial residual = 0.00273302, Final residual = 4.5444e-09, No Iterations 3
GAMG:  Solving for p_rgh, Initial residual = 0.00489762, Final residual = 4.41402e-05, No Iterations 4
time step continuity errors : sum local = 4.16124e-08, global = -4.90837e-20, cumulative = -4.61977e-19
GAMG:  Solving for p_rgh, Initial residual = 0.00169024, Final residual = 6.49177e-09, No Iterations 16
time step continuity errors : sum local = 6.27077e-12, global = 4.86384e-20, cumulative = -4.13338e-19
ExecutionTime = 0.64 s  ClockTime = 1 s

Courant Number mean: 0.0405285 max: 0.244667
Time = 1.71

DILUPBiCGStab:  Solving for T, Initial residual = 0.00269476, Final residual = 4.46706e-09, No Iterations 3
GAMG:  Solving for p_rgh, Initial residual = 0.00477847, Final residual = 4.48346e-05, No Iterations 4
time step continuity errors : sum local = 4.20217e-08, global = -9.07999e-21, cumulative = -4.22418e-19
GAMG:  Solving for p_rgh, Initial residual = 0.00173063, Final residual = 6.58718e-09, No Iterations 16
time step continuity errors : sum local = 6.32645e-12, global = 5.77511e-20, cumulative = -3.64667e-19
ExecutionTime = 0.65 s  ClockTime = 1 s

Courant Number mean: 0.0414239 max: 0.248172
Time = 1.74

DILUPBiCGStab:  Solving for T, Initial residual = 0.00265785, Final residual = 4.39499e-09, No Iterations 3
GAMG:  Solving for p_rgh, Initial residual = 0.00466477, Final residual = 4.54845e-05, No Iterations 4
time step continuity errors : sum local = 4.23941e-08, global = 4.87628e-20, cumulative = -3.15904e-19
GAMG:  Solving for p_rgh, Initial residual = 0.00177154, Final residual = 6.67924e-09, No Iterations 16
time step continuity errors : sum local = 6.37964e-12, global = -1.99773e-20, cumulative = -3.35882e-19
ExecutionTime = 0.67 s  ClockTime = 1 s

Courant Number mean: 0.0423216 max: 0.251643
Time = 1.77

DILUPBiCGStab:  Solving for T, Initial residual = 0.00262224, Final residual = 4.32741e-09, No Iterations 3
GAMG:  Solving for p_rgh, Initial residual = 0.00455742, Final residual = 2.07979e-05, No Iterations 5
time step continuity errors : sum local = 1.94113e-08, global = -2.54882e-20, cumulative = -3.6137e-19
GAMG:  Solving for p_rgh, Initial residual = 0.00182666, Final residual = 6.8766e-09, No Iterations 16
time step continuity errors : sum local = 6.53417e-12, global = -2.09858e-20, cumulative = -3.82356e-19
ExecutionTime = 0.68 s  ClockTime = 1 s

Courant Number mean: 0.0432213 max: 0.255081
Time = 1.8

DILUPBiCGStab:  Solving for T, Initial residual = 0.00258788, Final residual = 4.26436e-09, No Iterations 3
GAMG:  Solving for p_rgh, Initial residual = 0.00445597, Final residual = 2.11447e-05, No Iterations 5
time step continuity errors : sum local = 1.96365e-08, global = 4.96043e-20, cumulative = -3.32751e-19
GAMG:  Solving for p_rgh, Initial residual = 0.0018679, Final residual = 6.96314e-09, No Iterations 16
time step continuity errors : sum local = 6.58322e-12, global = 3.94994e-20, cumulative = -2.93252e-19
ExecutionTime = 0.69 s  ClockTime = 1 s

Courant Number mean: 0.0441229 max: 0.258486
Time = 1.83

DILUPBiCGStab:  Solving for T, Initial residual = 0.0025547, Final residual = 4.20563e-09, No Iterations 3
GAMG:  Solving for p_rgh, Initial residual = 0.00435801, Final residual = 2.14034e-05, No Iterations 5
time step continuity errors : sum local = 1.97813e-08, global = -2.59466e-20, cumulative = -3.19198e-19
GAMG:  Solving for p_rgh, Initial residual = 0.00190933, Final residual = 7.04646e-09, No Iterations 16
time step continuity errors : sum local = 6.63024e-12, global = 1.20564e-20, cumulative = -3.07142e-19
ExecutionTime = 0.7 s  ClockTime = 1 s

Courant Number mean: 0.0450266 max: 0.26186
Time = 1.86

DILUPBiCGStab:  Solving for T, Initial residual = 0.00252262, Final residual = 4.15064e-09, No Iterations 3
GAMG:  Solving for p_rgh, Initial residual = 0.00426509, Final residual = 2.16404e-05, No Iterations 5
time step continuity errors : sum local = 1.99088e-08, global = 1.07218e-19, cumulative = -1.99924e-19
GAMG:  Solving for p_rgh, Initial residual = 0.00195055, Final residual = 7.1261e-09, No Iterations 16
time step continuity errors : sum local = 6.67454e-12, global = 1.54422e-20, cumulative = -1.84482e-19
ExecutionTime = 0.71 s  ClockTime = 1 s

Courant Number mean: 0.0459324 max: 0.265202
Time = 1.89

DILUPBiCGStab:  Solving for T, Initial residual = 0.00249157, Final residual = 4.09945e-09, No Iterations 3
GAMG:  Solving for p_rgh, Initial residual = 0.0041759, Final residual = 2.18547e-05, No Iterations 5
time step continuity errors : sum local = 2.00185e-08, global = 1.57271e-20, cumulative = -1.68755e-19
GAMG:  Solving for p_rgh, Initial residual = 0.00199158, Final residual = 7.20176e-09, No Iterations 16
time step continuity errors : sum local = 6.71598e-12, global = -7.82589e-21, cumulative = -1.76581e-19
ExecutionTime = 0.73 s  ClockTime = 1 s

Courant Number mean: 0.0468396 max: 0.268513
Time = 1.92

DILUPBiCGStab:  Solving for T, Initial residual = 0.00246154, Final residual = 4.05223e-09, No Iterations 3
GAMG:  Solving for p_rgh, Initial residual = 0.00409172, Final residual = 2.20482e-05, No Iterations 5
time step continuity errors : sum local = 2.01123e-08, global = 1.4473e-20, cumulative = -1.62108e-19
GAMG:  Solving for p_rgh, Initial residual = 0.00203301, Final residual = 7.27368e-09, No Iterations 16
time step continuity errors : sum local = 6.75496e-12, global = 5.41623e-20, cumulative = -1.07945e-19
ExecutionTime = 0.74 s  ClockTime = 1 s

Courant Number mean: 0.0477484 max: 0.271794
Time = 1.95

DILUPBiCGStab:  Solving for T, Initial residual = 0.00243248, Final residual = 4.00854e-09, No Iterations 3
GAMG:  Solving for p_rgh, Initial residual = 0.00401064, Final residual = 2.22213e-05, No Iterations 5
time step continuity errors : sum local = 2.01905e-08, global = -2.3589e-20, cumulative = -1.31534e-19
GAMG:  Solving for p_rgh, Initial residual = 0.00207517, Final residual = 7.34182e-09, No Iterations 16
time step continuity errors : sum local = 6.79128e-12, global = 3.41752e-20, cumulative = -9.73591e-20
ExecutionTime = 0.75 s  ClockTime = 1 s

Courant Number mean: 0.0486586 max: 0.275046
Time = 1.98

DILUPBiCGStab:  Solving for T, Initial residual = 0.00240438, Final residual = 3.96814e-09, No Iterations 3
GAMG:  Solving for p_rgh, Initial residual = 0.0039322, Final residual = 2.2375e-05, No Iterations 5
time step continuity errors : sum local = 2.02542e-08, global = 4.23973e-20, cumulative = -5.49618e-20
GAMG:  Solving for p_rgh, Initial residual = 0.00211736, Final residual = 7.40596e-09, No Iterations 16
time step continuity errors : sum local = 6.8249e-12, global = 3.23383e-20, cumulative = -2.26235e-20
ExecutionTime = 0.76 s  ClockTime = 1 s

Courant Number mean: 0.0495699 max: 0.278268
Time = 2.01

DILUPBiCGStab:  Solving for T, Initial residual = 0.00237716, Final residual = 3.93094e-09, No Iterations 3
GAMG:  Solving for p_rgh, Initial residual = 0.00385945, Final residual = 2.25098e-05, No Iterations 5
time step continuity errors : sum local = 2.03045e-08, global = -3.18569e-20, cumulative = -5.44804e-20
GAMG:  Solving for p_rgh, Initial residual = 0.00215976, Final residual = 7.46596e-09, No Iterations 16
time step continuity errors : sum local = 6.85583e-12, global = -4.15951e-20, cumulative = -9.60755e-20
ExecutionTime = 0.78 s  ClockTime = 1 s

Courant Number mean: 0.0504842 max: 0.281462
Time = 2.04

DILUPBiCGStab:  Solving for T, Initial residual = 0.00235079, Final residual = 3.89694e-09, No Iterations 3
GAMG:  Solving for p_rgh, Initial residual = 0.00379072, Final residual = 2.26302e-05, No Iterations 5
time step continuity errors : sum local = 2.0346e-08, global = 3.24201e-20, cumulative = -6.36554e-20
GAMG:  Solving for p_rgh, Initial residual = 0.00220155, Final residual = 7.5224e-09, No Iterations 16
time step continuity errors : sum local = 6.88465e-12, global = -5.00726e-20, cumulative = -1.13728e-19
ExecutionTime = 0.79 s  ClockTime = 1 s

Courant Number mean: 0.0514015 max: 0.284628
Time = 2.07

DILUPBiCGStab:  Solving for T, Initial residual = 0.00232521, Final residual = 3.86584e-09, No Iterations 3
GAMG:  Solving for p_rgh, Initial residual = 0.00372452, Final residual = 2.27369e-05, No Iterations 5
time step continuity errors : sum local = 2.03785e-08, global = -5.52494e-20, cumulative = -1.68977e-19
GAMG:  Solving for p_rgh, Initial residual = 0.00224327, Final residual = 7.57519e-09, No Iterations 16
time step continuity errors : sum local = 6.91105e-12, global = -4.06029e-22, cumulative = -1.69383e-19
ExecutionTime = 0.8 s  ClockTime = 1 s

Courant Number mean: 0.0523207 max: 0.287766
Time = 2.1

DILUPBiCGStab:  Solving for T, Initial residual = 0.00230042, Final residual = 3.83776e-09, No Iterations 3
GAMG:  Solving for p_rgh, Initial residual = 0.00366109, Final residual = 2.28312e-05, No Iterations 5
time step continuity errors : sum local = 2.04032e-08, global = -4.64085e-20, cumulative = -2.15792e-19
GAMG:  Solving for p_rgh, Initial residual = 0.00228531, Final residual = 7.62412e-09, No Iterations 16
time step continuity errors : sum local = 6.93519e-12, global = -4.38446e-21, cumulative = -2.20176e-19
ExecutionTime = 0.81 s  ClockTime = 1 s

Courant Number mean: 0.0532416 max: 0.290878
Time = 2.13

DILUPBiCGStab:  Solving for T, Initial residual = 0.0022764, Final residual = 3.81249e-09, No Iterations 3
GAMG:  Solving for p_rgh, Initial residual = 0.00360175, Final residual = 2.29126e-05, No Iterations 5
time step continuity errors : sum local = 2.04204e-08, global = -6.33275e-21, cumulative = -2.26509e-19
GAMG:  Solving for p_rgh, Initial residual = 0.00232787, Final residual = 7.66921e-09, No Iterations 16
time step continuity errors : sum local = 6.95691e-12, global = -3.98858e-20, cumulative = -2.66395e-19
ExecutionTime = 0.83 s  ClockTime = 1 s

Courant Number mean: 0.0541645 max: 0.293963
Time = 2.16

DILUPBiCGStab:  Solving for T, Initial residual = 0.00225311, Final residual = 3.78965e-09, No Iterations 3
GAMG:  Solving for p_rgh, Initial residual = 0.00354475, Final residual = 2.29832e-05, No Iterations 5
time step continuity errors : sum local = 2.04313e-08, global = -2.2122e-20, cumulative = -2.88517e-19
GAMG:  Solving for p_rgh, Initial residual = 0.0023704, Final residual = 7.71061e-09, No Iterations 16
time step continuity errors : sum local = 6.97626e-12, global = 5.40052e-20, cumulative = -2.34512e-19
ExecutionTime = 0.84 s  ClockTime = 1 s

Courant Number mean: 0.0550889 max: 0.297089
Time = 2.19

DILUPBiCGStab:  Solving for T, Initial residual = 0.00223053, Final residual = 3.76922e-09, No Iterations 3
GAMG:  Solving for p_rgh, Initial residual = 0.0034909, Final residual = 2.30445e-05, No Iterations 5
time step continuity errors : sum local = 2.04372e-08, global = 5.81604e-20, cumulative = -1.76351e-19
GAMG:  Solving for p_rgh, Initial residual = 0.00241293, Final residual = 7.74829e-09, No Iterations 16
time step continuity errors : sum local = 6.99331e-12, global = -1.53571e-21, cumulative = -1.77887e-19
ExecutionTime = 0.85 s  ClockTime = 1 s

Courant Number mean: 0.0560145 max: 0.301009
Time = 2.22

DILUPBiCGStab:  Solving for T, Initial residual = 0.0022086, Final residual = 3.75115e-09, No Iterations 3
GAMG:  Solving for p_rgh, Initial residual = 0.0034392, Final residual = 2.30963e-05, No Iterations 5
time step continuity errors : sum local = 2.04379e-08, global = 2.53768e-21, cumulative = -1.75349e-19
GAMG:  Solving for p_rgh, Initial residual = 0.00245553, Final residual = 7.78216e-09, No Iterations 16
time step continuity errors : sum local = 7.00794e-12, global = 6.95358e-20, cumulative = -1.05814e-19
ExecutionTime = 0.86 s  ClockTime = 1 s

Courant Number mean: 0.0569409 max: 0.304908
Time = 2.25

DILUPBiCGStab:  Solving for T, Initial residual = 0.0021873, Final residual = 3.73511e-09, No Iterations 3
GAMG:  Solving for p_rgh, Initial residual = 0.00339037, Final residual = 2.31384e-05, No Iterations 5
time step continuity errors : sum local = 2.04336e-08, global = 3.87169e-20, cumulative = -6.70968e-20
GAMG:  Solving for p_rgh, Initial residual = 0.00249814, Final residual = 7.81202e-09, No Iterations 16
time step continuity errors : sum local = 7.02005e-12, global = 7.55116e-20, cumulative = 8.4148e-21
ExecutionTime = 0.88 s  ClockTime = 1 s

Courant Number mean: 0.0578692 max: 0.308785
Time = 2.28

DILUPBiCGStab:  Solving for T, Initial residual = 0.00216662, Final residual = 3.7213e-09, No Iterations 3
GAMG:  Solving for p_rgh, Initial residual = 0.0033432, Final residual = 2.31696e-05, No Iterations 5
time step continuity errors : sum local = 2.04226e-08, global = 5.22239e-20, cumulative = 6.06387e-20
GAMG:  Solving for p_rgh, Initial residual = 0.0025398, Final residual = 7.83742e-09, No Iterations 16
time step continuity errors : sum local = 7.02907e-12, global = -4.17981e-20, cumulative = 1.88406e-20
ExecutionTime = 0.89 s  ClockTime = 1 s

Courant Number mean: 0.0587983 max: 0.312641
Time = 2.31

DILUPBiCGStab:  Solving for T, Initial residual = 0.00214656, Final residual = 3.70927e-09, No Iterations 3
GAMG:  Solving for p_rgh, Initial residual = 0.00329866, Final residual = 2.31937e-05, No Iterations 5
time step continuity errors : sum local = 2.04087e-08, global = 6.00432e-20, cumulative = 7.88838e-20
GAMG:  Solving for p_rgh, Initial residual = 0.00258145, Final residual = 7.85862e-09, No Iterations 16
time step continuity errors : sum local = 7.03536e-12, global = -1.8828e-21, cumulative = 7.7001e-20
ExecutionTime = 0.9 s  ClockTime = 1 s

Courant Number mean: 0.0597285 max: 0.316475
Time = 2.34

DILUPBiCGStab:  Solving for T, Initial residual = 0.00212708, Final residual = 3.69928e-09, No Iterations 3
GAMG:  Solving for p_rgh, Initial residual = 0.00325856, Final residual = 2.32083e-05, No Iterations 5
time step continuity errors : sum local = 2.03892e-08, global = 9.73488e-21, cumulative = 8.67359e-20
GAMG:  Solving for p_rgh, Initial residual = 0.00262356, Final residual = 7.87575e-09, No Iterations 16
time step continuity errors : sum local = 7.03891e-12, global = 3.18013e-20, cumulative = 1.18537e-19
ExecutionTime = 0.91 s  ClockTime = 1 s

Courant Number mean: 0.0606591 max: 0.320288
Time = 2.37

DILUPBiCGStab:  Solving for T, Initial residual = 0.00210816, Final residual = 3.69124e-09, No Iterations 3
GAMG:  Solving for p_rgh, Initial residual = 0.00322118, Final residual = 2.3216e-05, No Iterations 5
time step continuity errors : sum local = 2.03664e-08, global = -6.059e-20, cumulative = 5.79471e-20
GAMG:  Solving for p_rgh, Initial residual = 0.00266551, Final residual = 7.88895e-09, No Iterations 16
time step continuity errors : sum local = 7.03991e-12, global = 2.10186e-20, cumulative = 7.89657e-20
ExecutionTime = 0.93 s  ClockTime = 1 s

Courant Number mean: 0.0615902 max: 0.324079
Time = 2.4

DILUPBiCGStab:  Solving for T, Initial residual = 0.00208977, Final residual = 3.685e-09, No Iterations 3
GAMG:  Solving for p_rgh, Initial residual = 0.003186, Final residual = 2.32156e-05, No Iterations 5
time step continuity errors : sum local = 2.03397e-08, global = -1.73316e-20, cumulative = 6.16341e-20
GAMG:  Solving for p_rgh, Initial residual = 0.00270817, Final residual = 7.89799e-09, No Iterations 16
time step continuity errors : sum local = 7.03839e-12, global = -9.12747e-20, cumulative = -2.96406e-20
ExecutionTime = 0.94 s  ClockTime = 1 s

Courant Number mean: 0.062522 max: 0.327849
Time = 2.43

DILUPBiCGStab:  Solving for T, Initial residual = 0.00207191, Final residual = 3.68046e-09, No Iterations 3
GAMG:  Solving for p_rgh, Initial residual = 0.00315434, Final residual = 2.3205e-05, No Iterations 5
time step continuity errors : sum local = 2.03078e-08, global = 2.21482e-20, cumulative = -7.49237e-21
GAMG:  Solving for p_rgh, Initial residual = 0.00275121, Final residual = 7.90225e-09, No Iterations 16
time step continuity errors : sum local = 7.03384e-12, global = -9.58098e-20, cumulative = -1.03302e-19
ExecutionTime = 0.95 s  ClockTime = 1 s

Courant Number mean: 0.0634541 max: 0.331599
Time = 2.46

DILUPBiCGStab:  Solving for T, Initial residual = 0.00205459, Final residual = 3.67762e-09, No Iterations 3
GAMG:  Solving for p_rgh, Initial residual = 0.00312737, Final residual = 2.31857e-05, No Iterations 5
time step continuity errors : sum local = 2.0272e-08, global = -5.96339e-20, cumulative = -1.62936e-19
GAMG:  Solving for p_rgh, Initial residual = 0.00279413, Final residual = 7.90213e-09, No Iterations 16
time step continuity errors : sum local = 7.02669e-12, global = -7.56066e-21, cumulative = -1.70497e-19
ExecutionTime = 0.96 s  ClockTime = 1 s

Courant Number mean: 0.0643867 max: 0.335327
Time = 2.49

DILUPBiCGStab:  Solving for T, Initial residual = 0.0020378, Final residual = 3.67657e-09, No Iterations 3
GAMG:  Solving for p_rgh, Initial residual = 0.0031047, Final residual = 2.31582e-05, No Iterations 5
time step continuity errors : sum local = 2.0232e-08, global = 9.11929e-21, cumulative = -1.61377e-19
GAMG:  Solving for p_rgh, Initial residual = 0.00283775, Final residual = 7.89805e-09, No Iterations 16
time step continuity errors : sum local = 7.01681e-12, global = 2.08025e-20, cumulative = -1.40575e-19
ExecutionTime = 0.98 s  ClockTime = 1 s

Courant Number mean: 0.0653198 max: 0.339034
Time = 2.52

DILUPBiCGStab:  Solving for T, Initial residual = 0.00202154, Final residual = 3.67701e-09, No Iterations 3
GAMG:  Solving for p_rgh, Initial residual = 0.00308521, Final residual = 2.31222e-05, No Iterations 5
time step continuity errors : sum local = 2.01871e-08, global = 2.21482e-20, cumulative = -1.18427e-19
GAMG:  Solving for p_rgh, Initial residual = 0.00288126, Final residual = 7.88988e-09, No Iterations 16
time step continuity errors : sum local = 7.00413e-12, global = -5.14053e-20, cumulative = -1.69832e-19
ExecutionTime = 0.99 s  ClockTime = 1 s

Courant Number mean: 0.0662532 max: 0.342721
Time = 2.55

DILUPBiCGStab:  Solving for T, Initial residual = 0.00200578, Final residual = 3.67902e-09, No Iterations 3
GAMG:  Solving for p_rgh, Initial residual = 0.00306975, Final residual = 2.30799e-05, No Iterations 5
time step continuity errors : sum local = 2.0139e-08, global = 5.77315e-20, cumulative = -1.12101e-19
GAMG:  Solving for p_rgh, Initial residual = 0.00292416, Final residual = 7.8781e-09, No Iterations 16
time step continuity errors : sum local = 6.98902e-12, global = -7.24762e-20, cumulative = -1.84577e-19
ExecutionTime = 1 s  ClockTime = 1 s

Courant Number mean: 0.0671887 max: 0.346386
Time = 2.58

DILUPBiCGStab:  Solving for T, Initial residual = 0.00199046, Final residual = 3.68245e-09, No Iterations 3
GAMG:  Solving for p_rgh, Initial residual = 0.0030566, Final residual = 2.30347e-05, No Iterations 5
time step continuity errors : sum local = 2.00906e-08, global = 1.25312e-20, cumulative = -1.72046e-19
GAMG:  Solving for p_rgh, Initial residual = 0.0029651, Final residual = 7.86346e-09, No Iterations 16
time step continuity errors : sum local = 6.97222e-12, global = 1.72104e-20, cumulative = -1.54835e-19
ExecutionTime = 1.02 s  ClockTime = 1 s

Courant Number mean: 0.0681256 max: 0.350034
Time = 2.61

DILUPBiCGStab:  Solving for T, Initial residual = 0.00197564, Final residual = 3.68723e-09, No Iterations 3
GAMG:  Solving for p_rgh, Initial residual = 0.00304594, Final residual = 2.29856e-05, No Iterations 5
time step continuity errors : sum local = 2.00413e-08, global = 7.82982e-20, cumulative = -7.6537e-20
GAMG:  Solving for p_rgh, Initial residual = 0.00300529, Final residual = 7.84583e-09, No Iterations 16
time step continuity errors : sum local = 6.95358e-12, global = -1.19631e-19, cumulative = -1.96168e-19
ExecutionTime = 1.03 s  ClockTime = 1 s

Courant Number mean: 0.0690642 max: 0.353671
Time = 2.64

DILUPBiCGStab:  Solving for T, Initial residual = 0.00196128, Final residual = 3.69317e-09, No Iterations 3
GAMG:  Solving for p_rgh, Initial residual = 0.00303671, Final residual = 2.29293e-05, No Iterations 5
time step continuity errors : sum local = 1.99878e-08, global = -6.4408e-21, cumulative = -2.02609e-19
GAMG:  Solving for p_rgh, Initial residual = 0.00304455, Final residual = 7.82459e-09, No Iterations 16
time step continuity errors : sum local = 6.93247e-12, global = 8.4906e-21, cumulative = -1.94118e-19
ExecutionTime = 1.04 s  ClockTime = 1 s

Courant Number mean: 0.0700034 max: 0.357287
Time = 2.67

DILUPBiCGStab:  Solving for T, Initial residual = 0.00194738, Final residual = 3.70053e-09, No Iterations 3
GAMG:  Solving for p_rgh, Initial residual = 0.0030285, Final residual = 2.28671e-05, No Iterations 5
time step continuity errors : sum local = 1.99315e-08, global = 6.22207e-20, cumulative = -1.31898e-19
GAMG:  Solving for p_rgh, Initial residual = 0.00308535, Final residual = 7.79988e-09, No Iterations 16
time step continuity errors : sum local = 6.90914e-12, global = 8.87731e-20, cumulative = -4.31247e-20
ExecutionTime = 1.05 s  ClockTime = 1 s

Courant Number mean: 0.0709437 max: 0.360882
Time = 2.7

DILUPBiCGStab:  Solving for T, Initial residual = 0.00193395, Final residual = 3.7091e-09, No Iterations 3
GAMG:  Solving for p_rgh, Initial residual = 0.00301917, Final residual = 2.2798e-05, No Iterations 5
time step continuity errors : sum local = 1.98715e-08, global = 4.60679e-20, cumulative = 2.94323e-21
GAMG:  Solving for p_rgh, Initial residual = 0.00312651, Final residual = 7.77129e-09, No Iterations 16
time step continuity errors : sum local = 6.88309e-12, global = 8.98143e-20, cumulative = 9.27576e-20
ExecutionTime = 1.07 s  ClockTime = 1 s

Courant Number mean: 0.0718841 max: 0.364457
Time = 2.73

DILUPBiCGStab:  Solving for T, Initial residual = 0.00192095, Final residual = 3.71922e-09, No Iterations 3
GAMG:  Solving for p_rgh, Initial residual = 0.00301752, Final residual = 2.27215e-05, No Iterations 5
time step continuity errors : sum local = 1.98073e-08, global = -1.11265e-20, cumulative = 8.1631e-20
GAMG:  Solving for p_rgh, Initial residual = 0.00316808, Final residual = 7.73907e-09, No Iterations 16
time step continuity errors : sum local = 6.85481e-12, global = 1.04834e-19, cumulative = 1.86465e-19
ExecutionTime = 1.08 s  ClockTime = 1 s

Courant Number mean: 0.0728249 max: 0.368013
Time = 2.76

DILUPBiCGStab:  Solving for T, Initial residual = 0.00190833, Final residual = 3.73052e-09, No Iterations 3
GAMG:  Solving for p_rgh, Initial residual = 0.00301713, Final residual = 2.26364e-05, No Iterations 5
time step continuity errors : sum local = 1.97387e-08, global = -1.63394e-21, cumulative = 1.84831e-19
GAMG:  Solving for p_rgh, Initial residual = 0.00320885, Final residual = 7.70327e-09, No Iterations 16
time step continuity errors : sum local = 6.82428e-12, global = 3.1595e-20, cumulative = 2.16426e-19
ExecutionTime = 1.09 s  ClockTime = 1 s

Courant Number mean: 0.0737659 max: 0.371548
Time = 2.79

DILUPBiCGStab:  Solving for T, Initial residual = 0.00189614, Final residual = 3.74228e-09, No Iterations 3
GAMG:  Solving for p_rgh, Initial residual = 0.00301873, Final residual = 2.25441e-05, No Iterations 5
time step continuity errors : sum local = 1.96663e-08, global = 9.03415e-21, cumulative = 2.2546e-19
GAMG:  Solving for p_rgh, Initial residual = 0.00324961, Final residual = 7.66397e-09, No Iterations 16
time step continuity errors : sum local = 6.79154e-12, global = 1.71056e-20, cumulative = 2.42566e-19
ExecutionTime = 1.1 s  ClockTime = 1 s

Courant Number mean: 0.0747069 max: 0.375063
Time = 2.82

DILUPBiCGStab:  Solving for T, Initial residual = 0.00188438, Final residual = 3.75526e-09, No Iterations 3
GAMG:  Solving for p_rgh, Initial residual = 0.00302337, Final residual = 2.2445e-05, No Iterations 5
time step continuity errors : sum local = 1.95901e-08, global = -9.08818e-20, cumulative = 1.51684e-19
GAMG:  Solving for p_rgh, Initial residual = 0.00329002, Final residual = 7.6216e-09, No Iterations 16
time step continuity errors : sum local = 6.75659e-12, global = 2.28555e-21, cumulative = 1.5397e-19
ExecutionTime = 1.12 s  ClockTime = 1 s

Courant Number mean: 0.0756483 max: 0.378558
Time = 2.85

DILUPBiCGStab:  Solving for T, Initial residual = 0.00187301, Final residual = 3.7692e-09, No Iterations 3
GAMG:  Solving for p_rgh, Initial residual = 0.00303033, Final residual = 2.2339e-05, No Iterations 5
time step continuity errors : sum local = 1.95093e-08, global = 2.93422e-20, cumulative = 1.83312e-19
GAMG:  Solving for p_rgh, Initial residual = 0.00332986, Final residual = 7.57635e-09, No Iterations 16
time step continuity errors : sum local = 6.71963e-12, global = -9.34915e-20, cumulative = 8.98204e-20
ExecutionTime = 1.13 s  ClockTime = 1 s

Courant Number mean: 0.0765898 max: 0.382034
Time = 2.88

DILUPBiCGStab:  Solving for T, Initial residual = 0.00186203, Final residual = 3.78403e-09, No Iterations 3
GAMG:  Solving for p_rgh, Initial residual = 0.00303819, Final residual = 2.22269e-05, No Iterations 5
time step continuity errors : sum local = 1.94247e-08, global = -5.25677e-20, cumulative = 3.72527e-20
GAMG:  Solving for p_rgh, Initial residual = 0.00336919, Final residual = 7.52821e-09, No Iterations 16
time step continuity errors : sum local = 6.68061e-12, global = 7.98961e-22, cumulative = 3.80517e-20
ExecutionTime = 1.14 s  ClockTime = 1 s

Courant Number mean: 0.0775305 max: 0.385491
Time = 2.91

DILUPBiCGStab:  Solving for T, Initial residual = 0.00185145, Final residual = 3.79964e-09, No Iterations 3
GAMG:  Solving for p_rgh, Initial residual = 0.00304721, Final residual = 2.21083e-05, No Iterations 5
time step continuity errors : sum local = 1.9336e-08, global = -1.07434e-19, cumulative = -6.93824e-20
GAMG:  Solving for p_rgh, Initial residual = 0.00340941, Final residual = 7.47728e-09, No Iterations 16
time step continuity errors : sum local = 6.63966e-12, global = -7.85306e-20, cumulative = -1.47913e-19
ExecutionTime = 1.15 s  ClockTime = 1 s

Courant Number mean: 0.0784715 max: 0.388927
Time = 2.94

DILUPBiCGStab:  Solving for T, Initial residual = 0.00184122, Final residual = 3.81585e-09, No Iterations 3
GAMG:  Solving for p_rgh, Initial residual = 0.00305619, Final residual = 2.19833e-05, No Iterations 5
time step continuity errors : sum local = 1.92434e-08, global = -7.08095e-20, cumulative = -2.18723e-19
GAMG:  Solving for p_rgh, Initial residual = 0.00345042, Final residual = 7.42342e-09, No Iterations 16
time step continuity errors : sum local = 6.5967e-12, global = -4.17228e-20, cumulative = -2.60445e-19
ExecutionTime = 1.17 s  ClockTime = 1 s

Courant Number mean: 0.079412 max: 0.392345
Time = 2.97

DILUPBiCGStab:  Solving for T, Initial residual = 0.00183134, Final residual = 3.83197e-09, No Iterations 3
GAMG:  Solving for p_rgh, Initial residual = 0.00306643, Final residual = 2.18511e-05, No Iterations 5
time step continuity errors : sum local = 1.91459e-08, global = 9.60325e-20, cumulative = -1.64413e-19
GAMG:  Solving for p_rgh, Initial residual = 0.00349176, Final residual = 7.36669e-09, No Iterations 16
time step continuity errors : sum local = 6.55157e-12, global = -1.5082e-20, cumulative = -1.79495e-19
ExecutionTime = 1.18 s  ClockTime = 1 s

Courant Number mean: 0.0803518 max: 0.395743
Time = 3

DILUPBiCGStab:  Solving for T, Initial residual = 0.00182183, Final residual = 3.84912e-09, No Iterations 3
GAMG:  Solving for p_rgh, Initial residual = 0.00307676, Final residual = 2.17112e-05, No Iterations 5
time step continuity errors : sum local = 1.90433e-08, global = -8.90317e-20, cumulative = -2.68527e-19
GAMG:  Solving for p_rgh, Initial residual = 0.00353323, Final residual = 7.30694e-09, No Iterations 16
time step continuity errors : sum local = 6.50435e-12, global = 3.81144e-20, cumulative = -2.30412e-19
ExecutionTime = 1.19 s  ClockTime = 1 s

Courant Number mean: 0.0812912 max: 0.399122
Time = 3.03

DILUPBiCGStab:  Solving for T, Initial residual = 0.0018127, Final residual = 3.86667e-09, No Iterations 3
GAMG:  Solving for p_rgh, Initial residual = 0.00308784, Final residual = 2.15645e-05, No Iterations 5
time step continuity errors : sum local = 1.89363e-08, global = -7.76367e-21, cumulative = -2.38176e-19
GAMG:  Solving for p_rgh, Initial residual = 0.0035743, Final residual = 7.24411e-09, No Iterations 16
time step continuity errors : sum local = 6.45489e-12, global = 7.80984e-20, cumulative = -1.60078e-19
ExecutionTime = 1.2 s  ClockTime = 1 s

Courant Number mean: 0.0822298 max: 0.402483
Time = 3.06

DILUPBiCGStab:  Solving for T, Initial residual = 0.00180389, Final residual = 3.88452e-09, No Iterations 3
GAMG:  Solving for p_rgh, Initial residual = 0.00309589, Final residual = 2.14104e-05, No Iterations 5
time step continuity errors : sum local = 1.88243e-08, global = -6.19293e-20, cumulative = -2.22007e-19
GAMG:  Solving for p_rgh, Initial residual = 0.00361422, Final residual = 7.17821e-09, No Iterations 16
time step continuity errors : sum local = 6.40328e-12, global = -6.26398e-21, cumulative = -2.28271e-19
ExecutionTime = 1.22 s  ClockTime = 1 s

Courant Number mean: 0.0831678 max: 0.405824
Time = 3.09

DILUPBiCGStab:  Solving for T, Initial residual = 0.00179537, Final residual = 3.90257e-09, No Iterations 3
GAMG:  Solving for p_rgh, Initial residual = 0.00310455, Final residual = 2.12498e-05, No Iterations 5
time step continuity errors : sum local = 1.87076e-08, global = 8.66054e-20, cumulative = -1.41665e-19
GAMG:  Solving for p_rgh, Initial residual = 0.00365268, Final residual = 7.10971e-09, No Iterations 16
time step continuity errors : sum local = 6.34952e-12, global = -4.0968e-20, cumulative = -1.82633e-19
ExecutionTime = 1.23 s  ClockTime = 1 s

Courant Number mean: 0.0841062 max: 0.409146
Time = 3.12

DILUPBiCGStab:  Solving for T, Initial residual = 0.00178718, Final residual = 3.92068e-09, No Iterations 3
GAMG:  Solving for p_rgh, Initial residual = 0.00311852, Final residual = 2.10871e-05, No Iterations 5
time step continuity errors : sum local = 1.85901e-08, global = -3.34614e-20, cumulative = -2.16095e-19
GAMG:  Solving for p_rgh, Initial residual = 0.00369102, Final residual = 7.03994e-09, No Iterations 16
time step continuity errors : sum local = 6.29485e-12, global = -5.95651e-20, cumulative = -2.7566e-19
ExecutionTime = 1.24 s  ClockTime = 1 s

Courant Number mean: 0.0850468 max: 0.41245
Time = 3.15

DILUPBiCGStab:  Solving for T, Initial residual = 0.00177934, Final residual = 3.93878e-09, No Iterations 3
GAMG:  Solving for p_rgh, Initial residual = 0.003132, Final residual = 2.09274e-05, No Iterations 5
time step continuity errors : sum local = 1.84759e-08, global = 2.04888e-19, cumulative = -7.07724e-20
GAMG:  Solving for p_rgh, Initial residual = 0.00372807, Final residual = 6.96997e-09, No Iterations 16
time step continuity errors : sum local = 6.24032e-12, global = -8.88647e-20, cumulative = -1.59637e-19
ExecutionTime = 1.25 s  ClockTime = 1 s

Courant Number mean: 0.0859883 max: 0.415735
Time = 3.18

DILUPBiCGStab:  Solving for T, Initial residual = 0.00177178, Final residual = 3.95667e-09, No Iterations 3
GAMG:  Solving for p_rgh, Initial residual = 0.00314731, Final residual = 2.0764e-05, No Iterations 5
time step continuity errors : sum local = 1.83596e-08, global = 3.10743e-20, cumulative = -1.28563e-19
GAMG:  Solving for p_rgh, Initial residual = 0.00376419, Final residual = 6.89851e-09, No Iterations 16
time step continuity errors : sum local = 6.18497e-12, global = -3.97548e-20, cumulative = -1.68318e-19
ExecutionTime = 1.27 s  ClockTime = 1 s

Courant Number mean: 0.0869306 max: 0.419002
Time = 3.21

DILUPBiCGStab:  Solving for T, Initial residual = 0.00176451, Final residual = 3.97446e-09, No Iterations 3
GAMG:  Solving for p_rgh, Initial residual = 0.00316306, Final residual = 2.05984e-05, No Iterations 5
time step continuity errors : sum local = 1.82429e-08, global = -1.40997e-20, cumulative = -1.82417e-19
GAMG:  Solving for p_rgh, Initial residual = 0.00379988, Final residual = 6.8266e-09, No Iterations 16
time step continuity errors : sum local = 6.12953e-12, global = 6.62384e-20, cumulative = -1.16179e-19
ExecutionTime = 1.28 s  ClockTime = 1 s

Courant Number mean: 0.0878731 max: 0.42225
Time = 3.24

DILUPBiCGStab:  Solving for T, Initial residual = 0.00175754, Final residual = 3.99196e-09, No Iterations 3
GAMG:  Solving for p_rgh, Initial residual = 0.00317896, Final residual = 2.0429e-05, No Iterations 5
time step continuity errors : sum local = 1.8124e-08, global = -2.85039e-20, cumulative = -1.44683e-19
GAMG:  Solving for p_rgh, Initial residual = 0.00383364, Final residual = 6.75385e-09, No Iterations 16
time step continuity errors : sum local = 6.07374e-12, global = -2.08843e-20, cumulative = -1.65567e-19
ExecutionTime = 1.29 s  ClockTime = 1 s

Courant Number mean: 0.0888161 max: 0.42548
Time = 3.27

DILUPBiCGStab:  Solving for T, Initial residual = 0.00175084, Final residual = 4.00849e-09, No Iterations 3
GAMG:  Solving for p_rgh, Initial residual = 0.00319386, Final residual = 2.02553e-05, No Iterations 5
time step continuity errors : sum local = 1.80022e-08, global = -9.03808e-20, cumulative = -2.55948e-19
GAMG:  Solving for p_rgh, Initial residual = 0.00386685, Final residual = 6.68009e-09, No Iterations 16
time step continuity errors : sum local = 6.01713e-12, global = -1.55712e-19, cumulative = -4.1166e-19
ExecutionTime = 1.3 s  ClockTime = 1 s

Courant Number mean: 0.0897584 max: 0.428692
Time = 3.3

DILUPBiCGStab:  Solving for T, Initial residual = 0.00174442, Final residual = 4.02375e-09, No Iterations 3
GAMG:  Solving for p_rgh, Initial residual = 0.00320935, Final residual = 2.00746e-05, No Iterations 5
time step continuity errors : sum local = 1.78745e-08, global = -1.23629e-19, cumulative = -5.35289e-19
GAMG:  Solving for p_rgh, Initial residual = 0.0039025, Final residual = 6.605e-09, No Iterations 16
time step continuity errors : sum local = 5.95945e-12, global = 1.36249e-20, cumulative = -5.21665e-19
ExecutionTime = 1.32 s  ClockTime = 1 s

Courant Number mean: 0.0907002 max: 0.431885
Time = 3.33

DILUPBiCGStab:  Solving for T, Initial residual = 0.00173823, Final residual = 4.03726e-09, No Iterations 3
GAMG:  Solving for p_rgh, Initial residual = 0.00322783, Final residual = 1.98885e-05, No Iterations 5
time step continuity errors : sum local = 1.77424e-08, global = -7.22437e-20, cumulative = -5.93908e-19
GAMG:  Solving for p_rgh, Initial residual = 0.00393892, Final residual = 6.52871e-09, No Iterations 16
time step continuity errors : sum local = 5.90082e-12, global = -2.09433e-20, cumulative = -6.14852e-19
ExecutionTime = 1.33 s  ClockTime = 1 s

Courant Number mean: 0.0916407 max: 0.43506
Time = 3.36

DILUPBiCGStab:  Solving for T, Initial residual = 0.00173234, Final residual = 4.04872e-09, No Iterations 3
GAMG:  Solving for p_rgh, Initial residual = 0.00324773, Final residual = 1.96982e-05, No Iterations 5
time step continuity errors : sum local = 1.7607e-08, global = 1.16737e-19, cumulative = -4.98115e-19
GAMG:  Solving for p_rgh, Initial residual = 0.00397505, Final residual = 6.45162e-09, No Iterations 16
time step continuity errors : sum local = 5.84139e-12, global = 1.37726e-19, cumulative = -3.60389e-19
ExecutionTime = 1.34 s  ClockTime = 1 s

Courant Number mean: 0.0925805 max: 0.438217
Time = 3.39

DILUPBiCGStab:  Solving for T, Initial residual = 0.00172672, Final residual = 4.05727e-09, No Iterations 3
GAMG:  Solving for p_rgh, Initial residual = 0.0032688, Final residual = 1.95055e-05, No Iterations 5
time step continuity errors : sum local = 1.74694e-08, global = 2.63395e-20, cumulative = -3.3405e-19
GAMG:  Solving for p_rgh, Initial residual = 0.00401174, Final residual = 6.37396e-09, No Iterations 16
time step continuity errors : sum local = 5.78139e-12, global = -4.85729e-20, cumulative = -3.82622e-19
ExecutionTime = 1.35 s  ClockTime = 1 s

Courant Number mean: 0.0935187 max: 0.441356
Time = 3.42

DILUPBiCGStab:  Solving for T, Initial residual = 0.00172131, Final residual = 4.06257e-09, No Iterations 3
GAMG:  Solving for p_rgh, Initial residual = 0.00328616, Final residual = 1.931e-05, No Iterations 5
time step continuity errors : sum local = 1.73291e-08, global = -8.06034e-20, cumulative = -4.63226e-19
GAMG:  Solving for p_rgh, Initial residual = 0.00404793, Final residual = 6.29563e-09, No Iterations 16
time step continuity errors : sum local = 5.72084e-12, global = 3.20763e-20, cumulative = -4.3115e-19
ExecutionTime = 1.37 s  ClockTime = 1 s

Courant Number mean: 0.094456 max: 0.444477
Time = 3.45

DILUPBiCGStab:  Solving for T, Initial residual = 0.00171612, Final residual = 4.06397e-09, No Iterations 3
GAMG:  Solving for p_rgh, Initial residual = 0.00330563, Final residual = 1.91105e-05, No Iterations 5
time step continuity errors : sum local = 1.71861e-08, global = 4.21092e-21, cumulative = -4.26939e-19
GAMG:  Solving for p_rgh, Initial residual = 0.00408106, Final residual = 6.2163e-09, No Iterations 16
time step continuity errors : sum local = 5.65965e-12, global = -1.23446e-19, cumulative = -5.50385e-19
ExecutionTime = 1.38 s  ClockTime = 1 s

Courant Number mean: 0.0953915 max: 0.44758
Time = 3.48

DILUPBiCGStab:  Solving for T, Initial residual = 0.00171116, Final residual = 4.06122e-09, No Iterations 3
GAMG:  Solving for p_rgh, Initial residual = 0.0033269, Final residual = 1.89074e-05, No Iterations 5
time step continuity errors : sum local = 1.70404e-08, global = -4.78263e-20, cumulative = -5.98211e-19
GAMG:  Solving for p_rgh, Initial residual = 0.00411367, Final residual = 6.13654e-09, No Iterations 16
time step continuity errors : sum local = 5.59814e-12, global = 4.70405e-20, cumulative = -5.5117e-19
ExecutionTime = 1.39 s  ClockTime = 1 s

Courant Number mean: 0.0963254 max: 0.450664
Time = 3.51

DILUPBiCGStab:  Solving for T, Initial residual = 0.00170647, Final residual = 4.05337e-09, No Iterations 3
GAMG:  Solving for p_rgh, Initial residual = 0.00334894, Final residual = 1.87019e-05, No Iterations 5
time step continuity errors : sum local = 1.68928e-08, global = 1.02781e-19, cumulative = -4.48389e-19
GAMG:  Solving for p_rgh, Initial residual = 0.00414787, Final residual = 6.05635e-09, No Iterations 16
time step continuity errors : sum local = 5.53633e-12, global = -9.93102e-20, cumulative = -5.477e-19
ExecutionTime = 1.4 s  ClockTime = 1 s

Courant Number mean: 0.0972575 max: 0.453731
Time = 3.54

DILUPBiCGStab:  Solving for T, Initial residual = 0.00170199, Final residual = 4.03938e-09, No Iterations 3
GAMG:  Solving for p_rgh, Initial residual = 0.00337266, Final residual = 1.84958e-05, No Iterations 5
time step continuity errors : sum local = 1.67449e-08, global = -4.31046e-20, cumulative = -5.90804e-19
GAMG:  Solving for p_rgh, Initial residual = 0.00418093, Final residual = 5.97635e-09, No Iterations 16
time step continuity errors : sum local = 5.47461e-12, global = -1.75359e-19, cumulative = -7.66163e-19
ExecutionTime = 1.42 s  ClockTime = 1 s

Courant Number mean: 0.0981913 max: 0.456779
Time = 3.57

DILUPBiCGStab:  Solving for T, Initial residual = 0.0016977, Final residual = 4.01078e-09, No Iterations 3
GAMG:  Solving for p_rgh, Initial residual = 0.00339677, Final residual = 1.82899e-05, No Iterations 5
time step continuity errors : sum local = 1.65967e-08, global = -2.39361e-21, cumulative = -7.68557e-19
GAMG:  Solving for p_rgh, Initial residual = 0.00421302, Final residual = 5.89753e-09, No Iterations 16
time step continuity errors : sum local = 5.41373e-12, global = 5.61597e-20, cumulative = -7.12397e-19
ExecutionTime = 1.43 s  ClockTime = 1 s

Courant Number mean: 0.0991287 max: 0.45981
Time = 3.6

DILUPBiCGStab:  Solving for T, Initial residual = 0.00169355, Final residual = 3.98132e-09, No Iterations 3
GAMG:  Solving for p_rgh, Initial residual = 0.0034194, Final residual = 1.80838e-05, No Iterations 5
time step continuity errors : sum local = 1.64481e-08, global = -9.87404e-20, cumulative = -8.11137e-19
GAMG:  Solving for p_rgh, Initial residual = 0.00424539, Final residual = 5.81976e-09, No Iterations 16
time step continuity errors : sum local = 5.35384e-12, global = 3.59172e-20, cumulative = -7.7522e-19
ExecutionTime = 1.44 s  ClockTime = 1 s

Courant Number mean: 0.100066 max: 0.462822
Time = 3.63

DILUPBiCGStab:  Solving for T, Initial residual = 0.00168966, Final residual = 3.94358e-09, No Iterations 3
GAMG:  Solving for p_rgh, Initial residual = 0.00344262, Final residual = 1.78784e-05, No Iterations 5
time step continuity errors : sum local = 1.63007e-08, global = -1.46102e-19, cumulative = -9.21322e-19
GAMG:  Solving for p_rgh, Initial residual = 0.00427627, Final residual = 5.74282e-09, No Iterations 16
time step continuity errors : sum local = 5.29479e-12, global = 1.0635e-19, cumulative = -8.14972e-19
ExecutionTime = 1.45 s  ClockTime = 1 s

Courant Number mean: 0.101003 max: 0.465816
Time = 3.66

DILUPBiCGStab:  Solving for T, Initial residual = 0.00168594, Final residual = 3.8967e-09, No Iterations 3
GAMG:  Solving for p_rgh, Initial residual = 0.00346515, Final residual = 1.76734e-05, No Iterations 5
time step continuity errors : sum local = 1.61539e-08, global = 7.30018e-20, cumulative = -7.4197e-19
GAMG:  Solving for p_rgh, Initial residual = 0.00430663, Final residual = 5.66627e-09, No Iterations 16
time step continuity errors : sum local = 5.23619e-12, global = -4.58997e-20, cumulative = -7.8787e-19
ExecutionTime = 1.47 s  ClockTime = 1 s

Courant Number mean: 0.101939 max: 0.468791
Time = 3.69

DILUPBiCGStab:  Solving for T, Initial residual = 0.00168244, Final residual = 3.84086e-09, No Iterations 3
GAMG:  Solving for p_rgh, Initial residual = 0.00348726, Final residual = 1.74684e-05, No Iterations 5
time step continuity errors : sum local = 1.60074e-08, global = 2.73972e-20, cumulative = -7.60472e-19
GAMG:  Solving for p_rgh, Initial residual = 0.00433772, Final residual = 5.59005e-09, No Iterations 16
time step continuity errors : sum local = 5.17806e-12, global = -8.4847e-20, cumulative = -8.45319e-19
ExecutionTime = 1.48 s  ClockTime = 1 s

Courant Number mean: 0.102875 max: 0.471748
Time = 3.72

DILUPBiCGStab:  Solving for T, Initial residual = 0.00167905, Final residual = 3.77478e-09, No Iterations 3
GAMG:  Solving for p_rgh, Initial residual = 0.00351339, Final residual = 1.72658e-05, No Iterations 5
time step continuity errors : sum local = 1.58628e-08, global = -2.13591e-20, cumulative = -8.66679e-19
GAMG:  Solving for p_rgh, Initial residual = 0.00436989, Final residual = 5.51468e-09, No Iterations 16
time step continuity errors : sum local = 5.12038e-12, global = -1.68993e-20, cumulative = -8.83578e-19
ExecutionTime = 1.49 s  ClockTime = 1 s

Courant Number mean: 0.103809 max: 0.474686
Time = 3.75

DILUPBiCGStab:  Solving for T, Initial residual = 0.00167583, Final residual = 3.69875e-09, No Iterations 3
GAMG:  Solving for p_rgh, Initial residual = 0.00354135, Final residual = 1.70654e-05, No Iterations 5
time step continuity errors : sum local = 1.57197e-08, global = -1.58155e-20, cumulative = -8.99393e-19
GAMG:  Solving for p_rgh, Initial residual = 0.00440051, Final residual = 5.44035e-09, No Iterations 16
time step continuity errors : sum local = 5.06338e-12, global = -4.80883e-20, cumulative = -9.47482e-19
ExecutionTime = 1.5 s  ClockTime = 2 s

Courant Number mean: 0.104741 max: 0.477606
Time = 3.78

DILUPBiCGStab:  Solving for T, Initial residual = 0.00167276, Final residual = 3.61342e-09, No Iterations 3
GAMG:  Solving for p_rgh, Initial residual = 0.00356596, Final residual = 1.68654e-05, No Iterations 5
time step continuity errors : sum local = 1.5576e-08, global = 3.21582e-20, cumulative = -9.15323e-19
GAMG:  Solving for p_rgh, Initial residual = 0.00442971, Final residual = 5.36667e-09, No Iterations 16
time step continuity errors : sum local = 5.00672e-12, global = -2.51771e-20, cumulative = -9.40501e-19
ExecutionTime = 1.51 s  ClockTime = 2 s

Courant Number mean: 0.105672 max: 0.480506
Time = 3.81

DILUPBiCGStab:  Solving for T, Initial residual = 0.00166987, Final residual = 3.51894e-09, No Iterations 3
GAMG:  Solving for p_rgh, Initial residual = 0.00359185, Final residual = 1.66686e-05, No Iterations 5
[...]
ExecutionTime = 37.22 s  ClockTime = 37 s

Courant Number mean: 0.314214 max: 0.906798
Time = 99.06

DILUPBiCGStab:  Solving for T, Initial residual = 0.000909537, Final residual = 1.95283e-09, No Iterations 3
GAMG:  Solving for p_rgh, Initial residual = 0.0120266, Final residual = 4.62882e-05, No Iterations 4
time step continuity errors : sum local = 8.48058e-08, global = 6.42771e-20, cumulative = -3.71569e-17
GAMG:  Solving for p_rgh, Initial residual = 0.0102947, Final residual = 6.00788e-09, No Iterations 15
time step continuity errors : sum local = 1.08438e-11, global = 1.88779e-19, cumulative = -3.69681e-17
ExecutionTime = 37.24 s  ClockTime = 37 s

Courant Number mean: 0.314227 max: 0.906373
Time = 99.09

DILUPBiCGStab:  Solving for T, Initial residual = 0.000909187, Final residual = 1.95387e-09, No Iterations 3
GAMG:  Solving for p_rgh, Initial residual = 0.0120435, Final residual = 4.57148e-05, No Iterations 4
time step continuity errors : sum local = 8.37079e-08, global = -8.08981e-20, cumulative = -3.7049e-17
GAMG:  Solving for p_rgh, Initial residual = 0.0103079, Final residual = 6.0227e-09, No Iterations 15
time step continuity errors : sum local = 1.08629e-11, global = 9.74994e-20, cumulative = -3.69515e-17
ExecutionTime = 37.25 s  ClockTime = 37 s

Courant Number mean: 0.314237 max: 0.90793
Time = 99.12

DILUPBiCGStab:  Solving for T, Initial residual = 0.000908869, Final residual = 1.93828e-09, No Iterations 3
GAMG:  Solving for p_rgh, Initial residual = 0.0120592, Final residual = 4.51679e-05, No Iterations 4
time step continuity errors : sum local = 8.2653e-08, global = 2.65393e-19, cumulative = -3.66861e-17
GAMG:  Solving for p_rgh, Initial residual = 0.0103234, Final residual = 6.03207e-09, No Iterations 15
time step continuity errors : sum local = 1.08716e-11, global = 7.30345e-20, cumulative = -3.66131e-17
ExecutionTime = 37.26 s  ClockTime = 37 s

Courant Number mean: 0.314246 max: 0.909126
Time = 99.15

DILUPBiCGStab:  Solving for T, Initial residual = 0.000908404, Final residual = 1.91901e-09, No Iterations 3
GAMG:  Solving for p_rgh, Initial residual = 0.0120688, Final residual = 4.46371e-05, No Iterations 4
time step continuity errors : sum local = 8.16274e-08, global = -3.57424e-19, cumulative = -3.69705e-17
GAMG:  Solving for p_rgh, Initial residual = 0.0103373, Final residual = 6.0349e-09, No Iterations 15
time step continuity errors : sum local = 1.08697e-11, global = 5.18237e-19, cumulative = -3.64522e-17
ExecutionTime = 37.27 s  ClockTime = 37 s

Courant Number mean: 0.314249 max: 0.909964
Time = 99.18

DILUPBiCGStab:  Solving for T, Initial residual = 0.000907854, Final residual = 1.89508e-09, No Iterations 3
GAMG:  Solving for p_rgh, Initial residual = 0.012082, Final residual = 4.41109e-05, No Iterations 4
time step continuity errors : sum local = 8.06193e-08, global = -7.55771e-20, cumulative = -3.65278e-17
GAMG:  Solving for p_rgh, Initial residual = 0.0103563, Final residual = 6.03178e-09, No Iterations 15
time step continuity errors : sum local = 1.08574e-11, global = -5.9534e-19, cumulative = -3.71232e-17
ExecutionTime = 37.29 s  ClockTime = 37 s

Courant Number mean: 0.314251 max: 0.910446
Time = 99.21

DILUPBiCGStab:  Solving for T, Initial residual = 0.000907246, Final residual = 1.87332e-09, No Iterations 3
GAMG:  Solving for p_rgh, Initial residual = 0.0120943, Final residual = 4.35936e-05, No Iterations 4
time step continuity errors : sum local = 7.96324e-08, global = -3.87136e-19, cumulative = -3.75103e-17
GAMG:  Solving for p_rgh, Initial residual = 0.0103703, Final residual = 6.02238e-09, No Iterations 15
time step continuity errors : sum local = 1.08348e-11, global = 3.86854e-19, cumulative = -3.71234e-17
ExecutionTime = 37.3 s  ClockTime = 37 s

Courant Number mean: 0.31425 max: 0.910577
Time = 99.24

DILUPBiCGStab:  Solving for T, Initial residual = 0.000906439, Final residual = 1.856e-09, No Iterations 3
GAMG:  Solving for p_rgh, Initial residual = 0.0120995, Final residual = 4.30967e-05, No Iterations 4
time step continuity errors : sum local = 7.86849e-08, global = -1.65031e-21, cumulative = -3.71251e-17
GAMG:  Solving for p_rgh, Initial residual = 0.0103786, Final residual = 6.00815e-09, No Iterations 15
time step continuity errors : sum local = 1.08037e-11, global = 2.2921e-21, cumulative = -3.71228e-17
ExecutionTime = 37.31 s  ClockTime = 37 s

Courant Number mean: 0.314244 max: 0.910362
Time = 99.27

DILUPBiCGStab:  Solving for T, Initial residual = 0.000905553, Final residual = 1.83051e-09, No Iterations 3
GAMG:  Solving for p_rgh, Initial residual = 0.0121062, Final residual = 4.26042e-05, No Iterations 4
time step continuity errors : sum local = 7.77461e-08, global = -1.78522e-20, cumulative = -3.71407e-17
GAMG:  Solving for p_rgh, Initial residual = 0.010392, Final residual = 5.98797e-09, No Iterations 15
time step continuity errors : sum local = 1.0762e-11, global = -1.91089e-19, cumulative = -3.73317e-17
ExecutionTime = 37.32 s  ClockTime = 37 s

Courant Number mean: 0.314237 max: 0.909809
Time = 99.3

DILUPBiCGStab:  Solving for T, Initial residual = 0.0009048, Final residual = 1.81902e-09, No Iterations 3
GAMG:  Solving for p_rgh, Initial residual = 0.0121125, Final residual = 0.000120716, No Iterations 3
time step continuity errors : sum local = 2.24569e-07, global = 4.58027e-20, cumulative = -3.72859e-17
GAMG:  Solving for p_rgh, Initial residual = 0.0103776, Final residual = 5.35846e-09, No Iterations 15
time step continuity errors : sum local = 9.6248e-12, global = 5.35156e-20, cumulative = -3.72324e-17
ExecutionTime = 37.33 s  ClockTime = 37 s

Courant Number mean: 0.314227 max: 0.909191
Time = 99.33

DILUPBiCGStab:  Solving for T, Initial residual = 0.000903921, Final residual = 1.79652e-09, No Iterations 3
GAMG:  Solving for p_rgh, Initial residual = 0.0121081, Final residual = 0.000117644, No Iterations 3
time step continuity errors : sum local = 2.19205e-07, global = 2.25647e-19, cumulative = -3.70068e-17
GAMG:  Solving for p_rgh, Initial residual = 0.0103821, Final residual = 5.35015e-09, No Iterations 15
time step continuity errors : sum local = 9.60557e-12, global = -2.00244e-19, cumulative = -3.7207e-17
ExecutionTime = 37.35 s  ClockTime = 37 s

Courant Number mean: 0.314216 max: 0.909566
Time = 99.36

DILUPBiCGStab:  Solving for T, Initial residual = 0.000903019, Final residual = 1.78182e-09, No Iterations 3
GAMG:  Solving for p_rgh, Initial residual = 0.012109, Final residual = 0.000115573, No Iterations 3
time step continuity errors : sum local = 2.15469e-07, global = 3.76428e-20, cumulative = -3.71694e-17
GAMG:  Solving for p_rgh, Initial residual = 0.0103887, Final residual = 5.30726e-09, No Iterations 15
time step continuity errors : sum local = 9.52435e-12, global = 3.43602e-20, cumulative = -3.7135e-17
ExecutionTime = 37.36 s  ClockTime = 37 s

Courant Number mean: 0.314203 max: 0.909592
Time = 99.39

DILUPBiCGStab:  Solving for T, Initial residual = 0.000901826, Final residual = 1.74198e-09, No Iterations 3
GAMG:  Solving for p_rgh, Initial residual = 0.0121091, Final residual = 0.000113528, No Iterations 3
time step continuity errors : sum local = 2.11779e-07, global = -2.96965e-19, cumulative = -3.7432e-17
GAMG:  Solving for p_rgh, Initial residual = 0.0103987, Final residual = 5.26006e-09, No Iterations 15
time step continuity errors : sum local = 9.43564e-12, global = -2.41129e-20, cumulative = -3.74561e-17
ExecutionTime = 37.37 s  ClockTime = 37 s

Courant Number mean: 0.314184 max: 0.909274
Time = 99.42

DILUPBiCGStab:  Solving for T, Initial residual = 0.000900714, Final residual = 1.71812e-09, No Iterations 3
GAMG:  Solving for p_rgh, Initial residual = 0.0121099, Final residual = 0.000111525, No Iterations 3
time step continuity errors : sum local = 2.08176e-07, global = 1.97985e-19, cumulative = -3.72581e-17
GAMG:  Solving for p_rgh, Initial residual = 0.010405, Final residual = 5.2089e-09, No Iterations 15
time step continuity errors : sum local = 9.3401e-12, global = 3.87856e-20, cumulative = -3.72193e-17
ExecutionTime = 37.38 s  ClockTime = 37 s

Courant Number mean: 0.314162 max: 0.908619
Time = 99.45

DILUPBiCGStab:  Solving for T, Initial residual = 0.000899633, Final residual = 1.70124e-09, No Iterations 3
GAMG:  Solving for p_rgh, Initial residual = 0.0120989, Final residual = 0.000109552, No Iterations 3
time step continuity errors : sum local = 2.04635e-07, global = 1.7454e-19, cumulative = -3.70448e-17
GAMG:  Solving for p_rgh, Initial residual = 0.0104099, Final residual = 5.15234e-09, No Iterations 15
time step continuity errors : sum local = 9.23524e-12, global = 2.85137e-19, cumulative = -3.67597e-17
ExecutionTime = 37.39 s  ClockTime = 37 s

Courant Number mean: 0.314143 max: 0.907635
Time = 99.48

DILUPBiCGStab:  Solving for T, Initial residual = 0.000898357, Final residual = 1.67001e-09, No Iterations 3
GAMG:  Solving for p_rgh, Initial residual = 0.0120921, Final residual = 0.000107577, No Iterations 3
time step continuity errors : sum local = 2.01089e-07, global = -2.50952e-20, cumulative = -3.67847e-17
GAMG:  Solving for p_rgh, Initial residual = 0.0104157, Final residual = 5.09088e-09, No Iterations 15
time step continuity errors : sum local = 9.12246e-12, global = 1.13263e-19, cumulative = -3.66715e-17
ExecutionTime = 37.4 s  ClockTime = 37 s

Courant Number mean: 0.314123 max: 0.906331
Time = 99.51

DILUPBiCGStab:  Solving for T, Initial residual = 0.00089689, Final residual = 1.63388e-09, No Iterations 3
GAMG:  Solving for p_rgh, Initial residual = 0.0120791, Final residual = 0.00010563, No Iterations 3
time step continuity errors : sum local = 1.97598e-07, global = 3.73403e-19, cumulative = -3.62981e-17
GAMG:  Solving for p_rgh, Initial residual = 0.0104135, Final residual = 5.02329e-09, No Iterations 15
time step continuity errors : sum local = 8.99876e-12, global = -4.60188e-20, cumulative = -3.63441e-17
ExecutionTime = 37.41 s  ClockTime = 37 s

Courant Number mean: 0.314098 max: 0.904717
Time = 99.54

DILUPBiCGStab:  Solving for T, Initial residual = 0.000895564, Final residual = 1.61207e-09, No Iterations 3
GAMG:  Solving for p_rgh, Initial residual = 0.0120718, Final residual = 0.000103811, No Iterations 3
time step continuity errors : sum local = 1.94319e-07, global = 2.45104e-19, cumulative = -3.6099e-17
GAMG:  Solving for p_rgh, Initial residual = 0.0104109, Final residual = 4.95389e-09, No Iterations 15
time step continuity errors : sum local = 8.87149e-12, global = -1.45634e-19, cumulative = -3.62446e-17
ExecutionTime = 37.42 s  ClockTime = 37 s

Courant Number mean: 0.314071 max: 0.903578
Time = 99.57

DILUPBiCGStab:  Solving for T, Initial residual = 0.000894226, Final residual = 1.60159e-09, No Iterations 3
GAMG:  Solving for p_rgh, Initial residual = 0.0120668, Final residual = 0.00010203, No Iterations 3
time step continuity errors : sum local = 1.91109e-07, global = 2.3737e-19, cumulative = -3.60073e-17
GAMG:  Solving for p_rgh, Initial residual = 0.0104129, Final residual = 4.88264e-09, No Iterations 15
time step continuity errors : sum local = 8.74034e-12, global = -3.60056e-20, cumulative = -3.60433e-17
ExecutionTime = 37.43 s  ClockTime = 37 s

Courant Number mean: 0.314042 max: 0.902928
Time = 99.6

DILUPBiCGStab:  Solving for T, Initial residual = 0.000892755, Final residual = 1.56826e-09, No Iterations 3
GAMG:  Solving for p_rgh, Initial residual = 0.0120588, Final residual = 9.93267e-05, No Iterations 3
time step continuity errors : sum local = 1.8654e-07, global = 1.56904e-19, cumulative = -3.58864e-17
GAMG:  Solving for p_rgh, Initial residual = 0.0104125, Final residual = 4.82835e-09, No Iterations 15
time step continuity errors : sum local = 8.63964e-12, global = 2.00166e-19, cumulative = -3.56862e-17
ExecutionTime = 37.45 s  ClockTime = 37 s

Courant Number mean: 0.314012 max: 0.901951
Time = 99.63

DILUPBiCGStab:  Solving for T, Initial residual = 0.000891148, Final residual = 1.5488e-09, No Iterations 3
GAMG:  Solving for p_rgh, Initial residual = 0.0120548, Final residual = 9.76146e-05, No Iterations 3
time step continuity errors : sum local = 1.83422e-07, global = -5.02874e-19, cumulative = -3.61891e-17
GAMG:  Solving for p_rgh, Initial residual = 0.0104022, Final residual = 4.75071e-09, No Iterations 15
time step continuity errors : sum local = 8.49697e-12, global = 2.28039e-19, cumulative = -3.5961e-17
ExecutionTime = 37.46 s  ClockTime = 37 s

Courant Number mean: 0.313976 max: 0.900655
Time = 99.66

DILUPBiCGStab:  Solving for T, Initial residual = 0.00088972, Final residual = 1.53147e-09, No Iterations 3
GAMG:  Solving for p_rgh, Initial residual = 0.0120443, Final residual = 9.6006e-05, No Iterations 3
time step continuity errors : sum local = 1.80491e-07, global = 3.36526e-19, cumulative = -3.56245e-17
GAMG:  Solving for p_rgh, Initial residual = 0.0103997, Final residual = 4.67263e-09, No Iterations 15
time step continuity errors : sum local = 8.35344e-12, global = -6.82326e-20, cumulative = -3.56927e-17
ExecutionTime = 37.47 s  ClockTime = 38 s

Courant Number mean: 0.313939 max: 0.899117
Time = 99.69

DILUPBiCGStab:  Solving for T, Initial residual = 0.000888243, Final residual = 1.52514e-09, No Iterations 3
GAMG:  Solving for p_rgh, Initial residual = 0.0120416, Final residual = 9.4451e-05, No Iterations 3
time step continuity errors : sum local = 1.77646e-07, global = -3.7525e-20, cumulative = -3.57303e-17
GAMG:  Solving for p_rgh, Initial residual = 0.0104032, Final residual = 4.59302e-09, No Iterations 15
time step continuity errors : sum local = 8.20689e-12, global = 3.58714e-19, cumulative = -3.53715e-17
ExecutionTime = 37.48 s  ClockTime = 38 s

Courant Number mean: 0.313901 max: 0.897806
Time = 99.72

DILUPBiCGStab:  Solving for T, Initial residual = 0.00088664, Final residual = 1.51508e-09, No Iterations 3
GAMG:  Solving for p_rgh, Initial residual = 0.0120285, Final residual = 9.30114e-05, No Iterations 3
time step continuity errors : sum local = 1.75004e-07, global = -2.53611e-19, cumulative = -3.56252e-17
GAMG:  Solving for p_rgh, Initial residual = 0.0103991, Final residual = 9.88029e-09, No Iterations 14
time step continuity errors : sum local = 1.76496e-11, global = -3.24298e-19, cumulative = -3.59495e-17
ExecutionTime = 37.49 s  ClockTime = 38 s

Courant Number mean: 0.313863 max: 0.896169
Time = 99.75

DILUPBiCGStab:  Solving for T, Initial residual = 0.000884956, Final residual = 1.51235e-09, No Iterations 3
GAMG:  Solving for p_rgh, Initial residual = 0.0120152, Final residual = 9.17126e-05, No Iterations 3
time step continuity errors : sum local = 1.72614e-07, global = 1.74802e-19, cumulative = -3.57747e-17
GAMG:  Solving for p_rgh, Initial residual = 0.0103927, Final residual = 9.69674e-09, No Iterations 14
time step continuity errors : sum local = 1.73158e-11, global = 5.08126e-20, cumulative = -3.57238e-17
ExecutionTime = 37.5 s  ClockTime = 38 s

Courant Number mean: 0.313825 max: 0.89437
Time = 99.78

DILUPBiCGStab:  Solving for T, Initial residual = 0.000883534, Final residual = 1.50416e-09, No Iterations 3
GAMG:  Solving for p_rgh, Initial residual = 0.0120008, Final residual = 9.04459e-05, No Iterations 3
time step continuity errors : sum local = 1.7026e-07, global = 1.97042e-19, cumulative = -3.55268e-17
GAMG:  Solving for p_rgh, Initial residual = 0.0103831, Final residual = 9.50438e-09, No Iterations 14
time step continuity errors : sum local = 1.69655e-11, global = 1.514e-19, cumulative = -3.53754e-17
ExecutionTime = 37.51 s  ClockTime = 38 s

Courant Number mean: 0.313784 max: 0.893749
Time = 99.81

DILUPBiCGStab:  Solving for T, Initial residual = 0.000882106, Final residual = 1.49895e-09, No Iterations 3
GAMG:  Solving for p_rgh, Initial residual = 0.0119889, Final residual = 8.93878e-05, No Iterations 3
time step continuity errors : sum local = 1.68259e-07, global = -2.94568e-19, cumulative = -3.567e-17
GAMG:  Solving for p_rgh, Initial residual = 0.0103726, Final residual = 9.30666e-09, No Iterations 14
time step continuity errors : sum local = 1.66053e-11, global = 3.83691e-19, cumulative = -3.52863e-17
ExecutionTime = 37.53 s  ClockTime = 38 s

Courant Number mean: 0.313743 max: 0.892775
Time = 99.84

DILUPBiCGStab:  Solving for T, Initial residual = 0.000880665, Final residual = 1.49108e-09, No Iterations 3
GAMG:  Solving for p_rgh, Initial residual = 0.0119802, Final residual = 8.84845e-05, No Iterations 3
time step continuity errors : sum local = 1.66514e-07, global = 1.69563e-19, cumulative = -3.51167e-17
GAMG:  Solving for p_rgh, Initial residual = 0.010357, Final residual = 9.10842e-09, No Iterations 14
time step continuity errors : sum local = 1.62438e-11, global = 4.66704e-20, cumulative = -3.507e-17
ExecutionTime = 37.54 s  ClockTime = 38 s

Courant Number mean: 0.313696 max: 0.891458
Time = 99.87

DILUPBiCGStab:  Solving for T, Initial residual = 0.000879218, Final residual = 1.48103e-09, No Iterations 3
GAMG:  Solving for p_rgh, Initial residual = 0.0119687, Final residual = 8.77215e-05, No Iterations 3
time step continuity errors : sum local = 1.65005e-07, global = -1.72746e-19, cumulative = -3.52428e-17
GAMG:  Solving for p_rgh, Initial residual = 0.0103487, Final residual = 8.90802e-09, No Iterations 14
time step continuity errors : sum local = 1.58778e-11, global = -3.5765e-20, cumulative = -3.52786e-17
ExecutionTime = 37.55 s  ClockTime = 38 s

Courant Number mean: 0.313648 max: 0.889809
Time = 99.9

DILUPBiCGStab:  Solving for T, Initial residual = 0.000878153, Final residual = 1.47205e-09, No Iterations 3
GAMG:  Solving for p_rgh, Initial residual = 0.0119602, Final residual = 8.71216e-05, No Iterations 3
time step continuity errors : sum local = 1.63761e-07, global = -4.24929e-19, cumulative = -3.57035e-17
GAMG:  Solving for p_rgh, Initial residual = 0.010347, Final residual = 8.70529e-09, No Iterations 14
time step continuity errors : sum local = 1.55073e-11, global = 2.72275e-19, cumulative = -3.54312e-17
ExecutionTime = 37.57 s  ClockTime = 38 s

Courant Number mean: 0.313602 max: 0.887842
Time = 99.93

DILUPBiCGStab:  Solving for T, Initial residual = 0.000876878, Final residual = 1.47505e-09, No Iterations 3
GAMG:  Solving for p_rgh, Initial residual = 0.0119436, Final residual = 8.66062e-05, No Iterations 3
time step continuity errors : sum local = 1.62662e-07, global = 2.78392e-20, cumulative = -3.54034e-17
GAMG:  Solving for p_rgh, Initial residual = 0.0103372, Final residual = 8.49875e-09, No Iterations 14
time step continuity errors : sum local = 1.51312e-11, global = 1.64797e-19, cumulative = -3.52386e-17
ExecutionTime = 37.58 s  ClockTime = 38 s

Courant Number mean: 0.313556 max: 0.885571
Time = 99.96

DILUPBiCGStab:  Solving for T, Initial residual = 0.000875758, Final residual = 1.47325e-09, No Iterations 3
GAMG:  Solving for p_rgh, Initial residual = 0.0119235, Final residual = 8.62261e-05, No Iterations 3
time step continuity errors : sum local = 1.61777e-07, global = -9.40351e-20, cumulative = -3.53326e-17
GAMG:  Solving for p_rgh, Initial residual = 0.0103201, Final residual = 8.2796e-09, No Iterations 14
time step continuity errors : sum local = 1.47335e-11, global = 4.03605e-19, cumulative = -3.4929e-17
ExecutionTime = 37.59 s  ClockTime = 38 s

Courant Number mean: 0.313512 max: 0.883011
Time = 99.99

DILUPBiCGStab:  Solving for T, Initial residual = 0.000874542, Final residual = 1.47026e-09, No Iterations 3
GAMG:  Solving for p_rgh, Initial residual = 0.0119036, Final residual = 8.6099e-05, No Iterations 3
time step continuity errors : sum local = 1.6132e-07, global = -2.23925e-19, cumulative = -3.51529e-17
GAMG:  Solving for p_rgh, Initial residual = 0.0103016, Final residual = 8.05158e-09, No Iterations 14
time step continuity errors : sum local = 1.43211e-11, global = -1.97641e-19, cumulative = -3.53506e-17
ExecutionTime = 37.6 s  ClockTime = 38 s

streamLine streamlines write:
    seeded 0 particles
    Tracks:0
    Total samples:0
End

